/work/05129/mars2020/stampede2/cfd/my_openfoam_2/openFoam2
Mon Apr  1 20:02:49 CDT 2019
/*---------------------------------------------------------------------------*\
  =========                 |
  \\      /  F ield         | OpenFOAM: The Open Source CFD Toolbox
   \\    /   O peration     | Website:  https://openfoam.org
    \\  /    A nd           | Version:  6.0
     \\/     M anipulation  |
\*---------------------------------------------------------------------------*/
Build  : 6.0
Exec   : blockMesh
Date   : Apr 01 2019
Time   : 20:02:52
Host   : "c401-104.stampede2.tacc.utexas.edu"
PID    : 70893
I/O    : uncollated
Case   : /work/05129/mars2020/stampede2/cfd/my_openfoam_2/openFoam2
nProcs : 1
sigFpe : Enabling floating point exception trapping (FOAM_SIGFPE).
fileModificationChecking : Monitoring run-time modified files using timeStampMaster (fileModificationSkew 10)
allowSystemOperations : Allowing user-supplied system call operations

// * * * * * * * * * * * * * * * * * * * * * * * * * * * * * * * * * * * * * //
Create time

Deleting polyMesh directory
    "/work/05129/mars2020/stampede2/cfd/my_openfoam_2/openFoam2/constant/polyMesh"
Creating block mesh from
    "/work/05129/mars2020/stampede2/cfd/my_openfoam_2/openFoam2/system/blockMeshDict"
Creating block edges
No non-planar block faces defined
Creating topology blocks
Creating topology patches

Creating block mesh topology
--> FOAM Warning : 
    From function Foam::polyMesh::polyMesh(const Foam::IOobject &, const Foam::Xfer<Foam::Field<Foam::Vector<double>>> &, const Foam::List<Foam::cellShape> &, const Foam::List<Foam::List<Foam::face>> &, const Foam::List<Foam::word> &, const Foam::PtrList<Foam::dictionary> &, const Foam::word &, const Foam::word &, bool)
    in file meshes/polyMesh/polyMeshFromShapeMesh.C at line 871
    Found 40 undefined faces in mesh; adding to default patch.

Check topology

	Basic statistics
		Number of internal faces : 28
		Number of boundary faces : 64
		Number of defined boundary faces : 64
		Number of undefined boundary faces : 0
	Checking patch -> block consistency

Creating block offsets
Creating merge list .

Creating polyMesh from blockMesh
Creating points with scale 1
    Block 0 cell size :
        i : 0.025 .. 0.025
        j : 0.0196337 .. 0.0196337
        k : 0.1 .. 0.1

    Block 1 cell size :
        i : 0.025 .. 0.025
        j : 0.0196337 .. 0.0196337
        k : 0.1 .. 0.1

    Block 2 cell size :
        i : 0.025 .. 0.025
        j : 0.0196337 .. 0.0196337
        k : 0.1 .. 0.1

    Block 3 cell size :
        i : 0.025 .. 0.025
        j : 0.0196337 .. 0.0196337
        k : 0.1 .. 0.1

    Block 4 cell size :
        i : 0.025 .. 0.025
        j : 0.0196337 .. 0.0196337
        k : 0.1 .. 0.1

    Block 5 cell size :
        i : 0.025 .. 0.025
        j : 0.0196337 .. 0.0196337
        k : 0.1 .. 0.1

    Block 6 cell size :
        i : 0.025 .. 0.025
        j : 0.0196337 .. 0.0196337
        k : 0.1 .. 0.1

    Block 7 cell size :
        i : 0.025 .. 0.025
        j : 0.0196337 .. 0.0196337
        k : 0.1 .. 0.1

    Block 8 cell size :
        i : 0.55 .. 0.55
        j : 0.0392674 .. 0.0392674
        k : 0.1 .. 0.1

    Block 9 cell size :
        i : 0.564645 .. 0.564645
        j : 0.364645 .. 0.364645
        k : 0.1 .. 0.1

    Block 10 cell size :
        i : 0.0392674 .. 0.0392674
        j : 0.35 .. 0.35
        k : 0.1 .. 0.1

    Block 11 cell size :
        i : 0.0392674 .. 0.0392674
        j : 0.364645 .. 0.364645
        k : 0.1 .. 0.1

    Block 12 cell size :
        i : 0.164645 .. 0.164645
        j : 0.364645 .. 0.364645
        k : 0.1 .. 0.1

    Block 13 cell size :
        i : 0.15 .. 0.15
        j : 0.0353554 .. 0.0353554
        k : 0.1 .. 0.1

    Block 14 cell size :
        i : 0.164645 .. 0.164645
        j : 0.0353554 .. 0.0353554
        k : 0.1 .. 0.1

    Block 15 cell size :
        i : 0.164645 .. 0.164645
        j : 0.364645 .. 0.364645
        k : 0.1 .. 0.1

    Block 16 cell size :
        i : 0.0353554 .. 0.0353554
        j : 0.364645 .. 0.364645
        k : 0.1 .. 0.1

    Block 17 cell size :
        i : 0.0353554 .. 0.0353554
        j : 0.35 .. 0.35
        k : 0.1 .. 0.1

    Block 18 cell size :
        i : 0.564645 .. 0.564645
        j : 0.364645 .. 0.364645
        k : 0.1 .. 0.1

    Block 19 cell size :
        i : 0.564645 .. 0.564645
        j : 0.0392674 .. 0.0392674
        k : 0.1 .. 0.1

Creating cells
Creating patches

Writing polyMesh
----------------
Mesh Information
----------------
  boundingBox: (-4 -8 -0.05) (12 8 0.05)
  nPoints: 16480
  nCells: 8000
  nFaces: 32240
  nInternalFaces: 15760
----------------
Patches
----------------
  patch 0 (start: 15760 size: 80) name: inlet
  patch 1 (start: 15840 size: 80) name: outlet
  patch 2 (start: 15920 size: 160) name: cylinder
  patch 3 (start: 16080 size: 80) name: top
  patch 4 (start: 16160 size: 80) name: bottom
  patch 5 (start: 16240 size: 16000) name: defaultFaces

End

/*---------------------------------------------------------------------------*\
  =========                 |
  \\      /  F ield         | OpenFOAM: The Open Source CFD Toolbox
   \\    /   O peration     | Website:  https://openfoam.org
    \\  /    A nd           | Version:  6.0
     \\/     M anipulation  |
\*---------------------------------------------------------------------------*/
Build  : 6.0
Exec   : checkMesh
Date   : Apr 01 2019
Time   : 20:02:54
Host   : "c401-104.stampede2.tacc.utexas.edu"
PID    : 70902
I/O    : uncollated
Case   : /work/05129/mars2020/stampede2/cfd/my_openfoam_2/openFoam2
nProcs : 1
sigFpe : Enabling floating point exception trapping (FOAM_SIGFPE).
fileModificationChecking : Monitoring run-time modified files using timeStampMaster (fileModificationSkew 10)
allowSystemOperations : Allowing user-supplied system call operations

// * * * * * * * * * * * * * * * * * * * * * * * * * * * * * * * * * * * * * //
Create time

Create polyMesh for time = 0

Time = 0

Mesh stats
    points:           16480
    internal points:  0
    faces:            32240
    internal faces:   15760
    cells:            8000
    faces per cell:   6
    boundary patches: 6
    point zones:      0
    face zones:       0
    cell zones:       0

Overall number of cells of each type:
    hexahedra:     8000
    prisms:        0
    wedges:        0
    pyramids:      0
    tet wedges:    0
    tetrahedra:    0
    polyhedra:     0

Checking topology...
    Boundary definition OK.
    Cell to face addressing OK.
    Point usage OK.
    Upper triangular ordering OK.
    Face vertices OK.
    Number of regions: 1 (OK).

Checking patch topology for multiply connected surfaces...
    Patch               Faces    Points   Surface topology                  
    inlet               80       162      ok (non-closed singly connected)  
    outlet              80       162      ok (non-closed singly connected)  
    cylinder            160      320      ok (non-closed singly connected)  
    top                 80       162      ok (non-closed singly connected)  
    bottom              80       162      ok (non-closed singly connected)  
    defaultFaces        16000    16480    ok (non-closed singly connected)  

Checking geometry...
    Overall domain bounding box (-4 -8 -0.05) (12 8 0.05)
    Mesh has 2 geometric (non-empty/wedge) directions (1 1 0)
    Mesh has 2 solution (non-empty) directions (1 1 0)
    All edges aligned with or perpendicular to non-empty directions.
    Boundary openness (-2.01266e-20 -1.87848e-19 -1.4363e-16) OK.
    Max cell openness = 2.03105e-16 OK.
    Max aspect ratio = 20.6047 OK.
    Minimum face area = 0.000503016. Maximum face area = 0.205895.  Face area magnitudes OK.
    Min volume = 5.03016e-05. Max volume = 0.0205895.  Total volume = 25.5215.  Cell volumes OK.
    Mesh non-orthogonality Max: 42.1963 average: 9.79724
    Non-orthogonality check OK.
    Face pyramids OK.
    Max skewness = 0.5043 OK.
    Coupled point location match (average 0) OK.

Mesh OK.

End

/*---------------------------------------------------------------------------*\
  =========                 |
  \\      /  F ield         | OpenFOAM: The Open Source CFD Toolbox
   \\    /   O peration     | Website:  https://openfoam.org
    \\  /    A nd           | Version:  6.0
     \\/     M anipulation  |
\*---------------------------------------------------------------------------*/
Build  : 6.0
Exec   : icoFoam
Date   : Apr 01 2019
Time   : 20:02:55
Host   : "c401-104.stampede2.tacc.utexas.edu"
PID    : 70978
I/O    : uncollated
Case   : /work/05129/mars2020/stampede2/cfd/my_openfoam_2/openFoam2
nProcs : 1
sigFpe : Enabling floating point exception trapping (FOAM_SIGFPE).
fileModificationChecking : Monitoring run-time modified files using timeStampMaster (fileModificationSkew 10)
allowSystemOperations : Allowing user-supplied system call operations

// * * * * * * * * * * * * * * * * * * * * * * * * * * * * * * * * * * * * * //
Create time

Create mesh for time = 0

Reading transportProperties

Reading field p

Reading field U

Reading/calculating face flux field phi


Starting time loop

Reading set description:
    simple_line

Time = 0.01

Courant Number mean: 0.0521587 max: 0.620055
smoothSolver:  Solving for Ux, Initial residual = 1, Final residual = 3.85741e-06, No Iterations 4
smoothSolver:  Solving for Uy, Initial residual = 0, Final residual = 0, No Iterations 0
DICPCG:  Solving for p, Initial residual = 1, Final residual = 0.0453506, No Iterations 81
time step continuity errors : sum local = 3.671e-06, global = 4.41257e-08, cumulative = 4.41257e-08
DICPCG:  Solving for p, Initial residual = 0.138852, Final residual = 9.4784e-07, No Iterations 149
time step continuity errors : sum local = 4.03635e-10, global = 1.62653e-12, cumulative = 4.41273e-08
ExecutionTime = 1.13 s  ClockTime = 1 s

Time = 0.02

Courant Number mean: 0.0531085 max: 0.862411
smoothSolver:  Solving for Ux, Initial residual = 0.301248, Final residual = 3.46341e-06, No Iterations 3
smoothSolver:  Solving for Uy, Initial residual = 0.332197, Final residual = 2.67499e-06, No Iterations 3
DICPCG:  Solving for p, Initial residual = 0.240637, Final residual = 0.0109957, No Iterations 83
time step continuity errors : sum local = 4.19855e-06, global = -5.50068e-08, cumulative = -1.08795e-08
DICPCG:  Solving for p, Initial residual = 0.54364, Final residual = 8.71361e-07, No Iterations 157
time step continuity errors : sum local = 9.36971e-11, global = 1.9999e-12, cumulative = -1.08775e-08
ExecutionTime = 1.28 s  ClockTime = 2 s

Time = 0.03

Courant Number mean: 0.0531092 max: 0.854578
smoothSolver:  Solving for Ux, Initial residual = 0.00803987, Final residual = 6.26329e-06, No Iterations 2
smoothSolver:  Solving for Uy, Initial residual = 0.00718554, Final residual = 2.52362e-06, No Iterations 2
DICPCG:  Solving for p, Initial residual = 0.172726, Final residual = 0.00718849, No Iterations 70
time step continuity errors : sum local = 2.29308e-07, global = -1.85382e-09, cumulative = -1.27313e-08
DICPCG:  Solving for p, Initial residual = 0.0333256, Final residual = 8.28967e-07, No Iterations 138
time step continuity errors : sum local = 3.01339e-11, global = 6.95909e-15, cumulative = -1.27313e-08
ExecutionTime = 1.41 s  ClockTime = 2 s

Time = 0.04

Courant Number mean: 0.0530987 max: 0.823302
smoothSolver:  Solving for Ux, Initial residual = 0.0100047, Final residual = 4.05616e-06, No Iterations 2
smoothSolver:  Solving for Uy, Initial residual = 0.0135048, Final residual = 2.25637e-06, No Iterations 2
DICPCG:  Solving for p, Initial residual = 0.0915451, Final residual = 0.00430882, No Iterations 25
time step continuity errors : sum local = 1.43481e-07, global = 2.11504e-08, cumulative = 8.41906e-09
DICPCG:  Solving for p, Initial residual = 0.0224716, Final residual = 9.22076e-07, No Iterations 137
time step continuity errors : sum local = 2.89048e-11, global = 2.03524e-13, cumulative = 8.41927e-09
ExecutionTime = 1.5 s  ClockTime = 2 s

Time = 0.05

Courant Number mean: 0.0530902 max: 0.816355
smoothSolver:  Solving for Ux, Initial residual = 0.00711461, Final residual = 2.73132e-06, No Iterations 2
smoothSolver:  Solving for Uy, Initial residual = 0.0114259, Final residual = 1.99131e-06, No Iterations 2
DICPCG:  Solving for p, Initial residual = 0.0762323, Final residual = 0.0034514, No Iterations 26
time step continuity errors : sum local = 9.92475e-08, global = 1.64927e-08, cumulative = 2.4912e-08
DICPCG:  Solving for p, Initial residual = 0.0184672, Final residual = 9.54413e-07, No Iterations 135
time step continuity errors : sum local = 2.62234e-11, global = 4.15521e-13, cumulative = 2.49124e-08
ExecutionTime = 1.6 s  ClockTime = 2 s

Time = 0.06

Courant Number mean: 0.0530829 max: 0.808009
smoothSolver:  Solving for Ux, Initial residual = 0.0054209, Final residual = 2.0508e-06, No Iterations 2
smoothSolver:  Solving for Uy, Initial residual = 0.00987796, Final residual = 1.82069e-06, No Iterations 2
DICPCG:  Solving for p, Initial residual = 0.0659749, Final residual = 0.00327381, No Iterations 25
time step continuity errors : sum local = 8.3886e-08, global = 1.29167e-08, cumulative = 3.78291e-08
DICPCG:  Solving for p, Initial residual = 0.0164094, Final residual = 8.26325e-07, No Iterations 134
time step continuity errors : sum local = 2.04153e-11, global = 2.45042e-13, cumulative = 3.78293e-08
ExecutionTime = 1.71 s  ClockTime = 2 s

Time = 0.07

Courant Number mean: 0.0530767 max: 0.798094
smoothSolver:  Solving for Ux, Initial residual = 0.00430925, Final residual = 1.63692e-06, No Iterations 2
smoothSolver:  Solving for Uy, Initial residual = 0.00865954, Final residual = 1.68796e-06, No Iterations 2
DICPCG:  Solving for p, Initial residual = 0.0578639, Final residual = 0.002612, No Iterations 26
time step continuity errors : sum local = 6.0689e-08, global = 1.11935e-08, cumulative = 4.90228e-08
DICPCG:  Solving for p, Initial residual = 0.0143331, Final residual = 9.29315e-07, No Iterations 128
time step continuity errors : sum local = 2.09199e-11, global = 4.97615e-14, cumulative = 4.90228e-08
ExecutionTime = 1.8 s  ClockTime = 2 s

Time = 0.08

Courant Number mean: 0.0530711 max: 0.787449
smoothSolver:  Solving for Ux, Initial residual = 0.00353963, Final residual = 1.37353e-06, No Iterations 2
smoothSolver:  Solving for Uy, Initial residual = 0.00766822, Final residual = 1.57675e-06, No Iterations 2
DICPCG:  Solving for p, Initial residual = 0.0515462, Final residual = 0.00226543, No Iterations 26
time step continuity errors : sum local = 4.83001e-08, global = 9.24111e-09, cumulative = 5.82639e-08
DICPCG:  Solving for p, Initial residual = 0.0130182, Final residual = 8.84971e-07, No Iterations 127
time step continuity errors : sum local = 1.83504e-11, global = 3.90456e-13, cumulative = 5.82643e-08
ExecutionTime = 1.9 s  ClockTime = 2 s

Time = 0.09

Courant Number mean: 0.0530661 max: 0.776144
smoothSolver:  Solving for Ux, Initial residual = 0.00298469, Final residual = 1.18796e-06, No Iterations 2
smoothSolver:  Solving for Uy, Initial residual = 0.0068469, Final residual = 1.48493e-06, No Iterations 2
DICPCG:  Solving for p, Initial residual = 0.047141, Final residual = 0.00205859, No Iterations 26
time step continuity errors : sum local = 4.06624e-08, global = 7.68799e-09, cumulative = 6.59523e-08
DICPCG:  Solving for p, Initial residual = 0.012073, Final residual = 9.25019e-07, No Iterations 125
time step continuity errors : sum local = 1.78283e-11, global = 1.449e-13, cumulative = 6.59525e-08
ExecutionTime = 2 s  ClockTime = 2 s

Time = 0.1

Courant Number mean: 0.0530616 max: 0.767603
smoothSolver:  Solving for Ux, Initial residual = 0.00256737, Final residual = 1.0416e-06, No Iterations 2
smoothSolver:  Solving for Uy, Initial residual = 0.00616674, Final residual = 1.40911e-06, No Iterations 2
DICPCG:  Solving for p, Initial residual = 0.0436822, Final residual = 0.00218351, No Iterations 25
time step continuity errors : sum local = 4.02768e-08, global = 6.08895e-09, cumulative = 7.20414e-08
DICPCG:  Solving for p, Initial residual = 0.0115209, Final residual = 9.88336e-07, No Iterations 114
time step continuity errors : sum local = 1.78274e-11, global = 1.89213e-13, cumulative = 7.20416e-08
ExecutionTime = 2.28 s  ClockTime = 3 s

Time = 0.11

Courant Number mean: 0.0530573 max: 0.763948
smoothSolver:  Solving for Ux, Initial residual = 0.0022448, Final residual = 9.25616e-07, No Iterations 2
smoothSolver:  Solving for Uy, Initial residual = 0.00562088, Final residual = 1.34704e-06, No Iterations 2
DICPCG:  Solving for p, Initial residual = 0.0410018, Final residual = 0.00200259, No Iterations 25
time step continuity errors : sum local = 3.46965e-08, global = 5.11462e-09, cumulative = 7.71562e-08
DICPCG:  Solving for p, Initial residual = 0.0107945, Final residual = 9.59247e-07, No Iterations 114
time step continuity errors : sum local = 1.62746e-11, global = 9.8332e-14, cumulative = 7.71563e-08
ExecutionTime = 2.37 s  ClockTime = 3 s

Time = 0.12

Courant Number mean: 0.0530534 max: 0.76003
smoothSolver:  Solving for Ux, Initial residual = 0.00199104, Final residual = 8.34954e-07, No Iterations 2
smoothSolver:  Solving for Uy, Initial residual = 0.00516674, Final residual = 1.29359e-06, No Iterations 2
DICPCG:  Solving for p, Initial residual = 0.0382166, Final residual = 0.001775, No Iterations 25
time step continuity errors : sum local = 2.95171e-08, global = 4.34939e-09, cumulative = 8.15057e-08
DICPCG:  Solving for p, Initial residual = 0.0100069, Final residual = 9.08092e-07, No Iterations 113
time step continuity errors : sum local = 1.48181e-11, global = 8.20066e-14, cumulative = 8.15058e-08
ExecutionTime = 2.47 s  ClockTime = 3 s

Time = 0.13

Courant Number mean: 0.0530497 max: 0.755721
smoothSolver:  Solving for Ux, Initial residual = 0.0017871, Final residual = 7.61333e-07, No Iterations 2
smoothSolver:  Solving for Uy, Initial residual = 0.00478292, Final residual = 1.2486e-06, No Iterations 2
DICPCG:  Solving for p, Initial residual = 0.035182, Final residual = 0.00159543, No Iterations 25
time step continuity errors : sum local = 2.59838e-08, global = 3.70436e-09, cumulative = 8.52102e-08
DICPCG:  Solving for p, Initial residual = 0.0091894, Final residual = 9.4371e-07, No Iterations 112
time step continuity errors : sum local = 1.51028e-11, global = 8.43766e-14, cumulative = 8.52102e-08
ExecutionTime = 2.56 s  ClockTime = 3 s

Time = 0.14

Courant Number mean: 0.0530462 max: 0.751089
smoothSolver:  Solving for Ux, Initial residual = 0.00162055, Final residual = 7.00401e-07, No Iterations 2
smoothSolver:  Solving for Uy, Initial residual = 0.00446433, Final residual = 1.21141e-06, No Iterations 2
DICPCG:  Solving for p, Initial residual = 0.032542, Final residual = 0.00140434, No Iterations 25
time step continuity errors : sum local = 2.24175e-08, global = 3.17974e-09, cumulative = 8.839e-08
DICPCG:  Solving for p, Initial residual = 0.00844526, Final residual = 9.42657e-07, No Iterations 111
time step continuity errors : sum local = 1.48091e-11, global = 1.65033e-13, cumulative = 8.83901e-08
ExecutionTime = 2.65 s  ClockTime = 3 s

Time = 0.15

Courant Number mean: 0.0530429 max: 0.746211
smoothSolver:  Solving for Ux, Initial residual = 0.0014819, Final residual = 6.49261e-07, No Iterations 2
smoothSolver:  Solving for Uy, Initial residual = 0.00419565, Final residual = 1.17875e-06, No Iterations 2
DICPCG:  Solving for p, Initial residual = 0.0302666, Final residual = 0.00150034, No Iterations 24
time step continuity errors : sum local = 2.35003e-08, global = 2.50478e-09, cumulative = 9.08949e-08
DICPCG:  Solving for p, Initial residual = 0.00800077, Final residual = 9.1517e-07, No Iterations 112
time step continuity errors : sum local = 1.41228e-11, global = 2.6571e-13, cumulative = 9.08952e-08
ExecutionTime = 2.74 s  ClockTime = 3 s

Time = 0.16

Courant Number mean: 0.0530398 max: 0.741316
smoothSolver:  Solving for Ux, Initial residual = 0.00136518, Final residual = 6.05644e-07, No Iterations 2
smoothSolver:  Solving for Uy, Initial residual = 0.00397751, Final residual = 1.14976e-06, No Iterations 2
DICPCG:  Solving for p, Initial residual = 0.0282977, Final residual = 0.00136914, No Iterations 24
time step continuity errors : sum local = 2.10613e-08, global = 2.14914e-09, cumulative = 9.30443e-08
DICPCG:  Solving for p, Initial residual = 0.00749364, Final residual = 9.25796e-07, No Iterations 112
time step continuity errors : sum local = 1.40466e-11, global = 3.47488e-13, cumulative = 9.30447e-08
ExecutionTime = 2.83 s  ClockTime = 3 s

Time = 0.17

Courant Number mean: 0.0530368 max: 0.736429
smoothSolver:  Solving for Ux, Initial residual = 0.00126624, Final residual = 5.6833e-07, No Iterations 2
smoothSolver:  Solving for Uy, Initial residual = 0.00379366, Final residual = 1.12365e-06, No Iterations 2
DICPCG:  Solving for p, Initial residual = 0.0267086, Final residual = 0.00125349, No Iterations 24
time step continuity errors : sum local = 1.89487e-08, global = 1.8503e-09, cumulative = 9.4895e-08
DICPCG:  Solving for p, Initial residual = 0.00705997, Final residual = 9.0304e-07, No Iterations 112
time step continuity errors : sum local = 1.34728e-11, global = 3.14077e-13, cumulative = 9.48953e-08
ExecutionTime = 2.92 s  ClockTime = 3 s

Time = 0.18

Courant Number mean: 0.0530339 max: 0.731472
smoothSolver:  Solving for Ux, Initial residual = 0.00118182, Final residual = 5.36259e-07, No Iterations 2
smoothSolver:  Solving for Uy, Initial residual = 0.00363604, Final residual = 1.10166e-06, No Iterations 2
DICPCG:  Solving for p, Initial residual = 0.0253109, Final residual = 0.00115, No Iterations 24
time step continuity errors : sum local = 1.70902e-08, global = 1.60136e-09, cumulative = 9.64966e-08
DICPCG:  Solving for p, Initial residual = 0.00668594, Final residual = 9.28353e-07, No Iterations 112
time step continuity errors : sum local = 1.36257e-11, global = 2.69652e-13, cumulative = 9.64969e-08
ExecutionTime = 3 s  ClockTime = 4 s

Time = 0.19

Courant Number mean: 0.0530311 max: 0.726483
smoothSolver:  Solving for Ux, Initial residual = 0.00110865, Final residual = 5.08614e-07, No Iterations 2
smoothSolver:  Solving for Uy, Initial residual = 0.00350396, Final residual = 1.08252e-06, No Iterations 2
DICPCG:  Solving for p, Initial residual = 0.0240537, Final residual = 0.00105767, No Iterations 24
time step continuity errors : sum local = 1.5461e-08, global = 1.38217e-09, cumulative = 9.78791e-08
DICPCG:  Solving for p, Initial residual = 0.00633958, Final residual = 9.13547e-07, No Iterations 113
time step continuity errors : sum local = 1.3195e-11, global = 2.09426e-13, cumulative = 9.78793e-08
ExecutionTime = 3.09 s  ClockTime = 4 s

Time = 0.2

Courant Number mean: 0.0530285 max: 0.724282
smoothSolver:  Solving for Ux, Initial residual = 0.00104473, Final residual = 4.84856e-07, No Iterations 2
smoothSolver:  Solving for Uy, Initial residual = 0.00339629, Final residual = 1.0652e-06, No Iterations 2
DICPCG:  Solving for p, Initial residual = 0.0229073, Final residual = 0.000972772, No Iterations 24
time step continuity errors : sum local = 1.39983e-08, global = 1.19929e-09, cumulative = 9.90786e-08
DICPCG:  Solving for p, Initial residual = 0.00602834, Final residual = 9.90688e-07, No Iterations 115
time step continuity errors : sum local = 1.41015e-11, global = 1.46151e-13, cumulative = 9.90787e-08
ExecutionTime = 3.37 s  ClockTime = 4 s

Time = 0.21

Courant Number mean: 0.0530259 max: 0.722238
smoothSolver:  Solving for Ux, Initial residual = 0.000989034, Final residual = 4.6418e-07, No Iterations 2
smoothSolver:  Solving for Uy, Initial residual = 0.00330551, Final residual = 1.04958e-06, No Iterations 2
DICPCG:  Solving for p, Initial residual = 0.021845, Final residual = 0.00103895, No Iterations 22
time step continuity errors : sum local = 1.47321e-08, global = 9.85605e-10, cumulative = 1.00064e-07
DICPCG:  Solving for p, Initial residual = 0.00582044, Final residual = 9.12666e-07, No Iterations 117
time step continuity errors : sum local = 1.2809e-11, global = 2.97188e-13, cumulative = 1.00065e-07
ExecutionTime = 3.47 s  ClockTime = 4 s

Time = 0.22

Courant Number mean: 0.0530235 max: 0.720074
smoothSolver:  Solving for Ux, Initial residual = 0.00093996, Final residual = 4.45637e-07, No Iterations 2
smoothSolver:  Solving for Uy, Initial residual = 0.00322802, Final residual = 1.03496e-06, No Iterations 2
DICPCG:  Solving for p, Initial residual = 0.0208582, Final residual = 0.000969511, No Iterations 19
time step continuity errors : sum local = 1.35536e-08, global = 6.32889e-10, cumulative = 1.00698e-07
DICPCG:  Solving for p, Initial residual = 0.00561479, Final residual = 8.17242e-07, No Iterations 118
time step continuity errors : sum local = 1.13125e-11, global = -7.16637e-14, cumulative = 1.00697e-07
ExecutionTime = 3.56 s  ClockTime = 7 s

Time = 0.23

Courant Number mean: 0.0530211 max: 0.71801
smoothSolver:  Solving for Ux, Initial residual = 0.000896442, Final residual = 4.28881e-07, No Iterations 2
smoothSolver:  Solving for Uy, Initial residual = 0.00316213, Final residual = 1.02174e-06, No Iterations 2
DICPCG:  Solving for p, Initial residual = 0.0199773, Final residual = 0.000983033, No Iterations 18
time step continuity errors : sum local = 1.35561e-08, global = 4.62029e-10, cumulative = 1.01159e-07
DICPCG:  Solving for p, Initial residual = 0.0054359, Final residual = 9.21352e-07, No Iterations 118
time step continuity errors : sum local = 1.25868e-11, global = -1.37249e-13, cumulative = 1.01159e-07
ExecutionTime = 3.64 s  ClockTime = 7 s

Time = 0.24

Courant Number mean: 0.0530189 max: 0.715883
smoothSolver:  Solving for Ux, Initial residual = 0.000857964, Final residual = 4.13656e-07, No Iterations 2
smoothSolver:  Solving for Uy, Initial residual = 0.00310438, Final residual = 1.00941e-06, No Iterations 2
DICPCG:  Solving for p, Initial residual = 0.0190991, Final residual = 0.000946297, No Iterations 17
time step continuity errors : sum local = 1.28809e-08, global = 3.51488e-10, cumulative = 1.01511e-07
DICPCG:  Solving for p, Initial residual = 0.00516602, Final residual = 9.85901e-07, No Iterations 120
time step continuity errors : sum local = 1.33027e-11, global = -1.89055e-13, cumulative = 1.01511e-07
ExecutionTime = 3.74 s  ClockTime = 7 s

Time = 0.25

Courant Number mean: 0.0530167 max: 0.713697
smoothSolver:  Solving for Ux, Initial residual = 0.000823793, Final residual = 3.99564e-07, No Iterations 2
smoothSolver:  Solving for Uy, Initial residual = 0.00305141, Final residual = 9.98117e-07, No Iterations 2
DICPCG:  Solving for p, Initial residual = 0.0182739, Final residual = 0.000906488, No Iterations 16
time step continuity errors : sum local = 1.21888e-08, global = 2.7728e-10, cumulative = 1.01788e-07
DICPCG:  Solving for p, Initial residual = 0.00498738, Final residual = 9.09915e-07, No Iterations 122
time step continuity errors : sum local = 1.2134e-11, global = -1.36592e-13, cumulative = 1.01788e-07
ExecutionTime = 3.83 s  ClockTime = 7 s

Time = 0.26

Courant Number mean: 0.0530146 max: 0.711464
smoothSolver:  Solving for Ux, Initial residual = 0.000793321, Final residual = 3.86539e-07, No Iterations 2
smoothSolver:  Solving for Uy, Initial residual = 0.00300422, Final residual = 9.87697e-07, No Iterations 2
DICPCG:  Solving for p, Initial residual = 0.0174819, Final residual = 0.000855724, No Iterations 16
time step continuity errors : sum local = 1.13755e-08, global = 2.48867e-10, cumulative = 1.02037e-07
DICPCG:  Solving for p, Initial residual = 0.00478883, Final residual = 9.93202e-07, No Iterations 118
time step continuity errors : sum local = 1.31011e-11, global = -3.43235e-14, cumulative = 1.02037e-07
ExecutionTime = 3.92 s  ClockTime = 7 s

Time = 0.27

Courant Number mean: 0.0530127 max: 0.709197
smoothSolver:  Solving for Ux, Initial residual = 0.000765901, Final residual = 3.74429e-07, No Iterations 2
smoothSolver:  Solving for Uy, Initial residual = 0.00296233, Final residual = 9.77968e-07, No Iterations 2
DICPCG:  Solving for p, Initial residual = 0.0167527, Final residual = 0.000825835, No Iterations 16
time step continuity errors : sum local = 1.08622e-08, global = 2.25478e-10, cumulative = 1.02262e-07
DICPCG:  Solving for p, Initial residual = 0.00461621, Final residual = 9.31458e-07, No Iterations 118
time step continuity errors : sum local = 1.2165e-11, global = 5.4622e-15, cumulative = 1.02262e-07
ExecutionTime = 4.01 s  ClockTime = 7 s

Time = 0.28

Courant Number mean: 0.0530108 max: 0.706922
smoothSolver:  Solving for Ux, Initial residual = 0.000740961, Final residual = 3.63167e-07, No Iterations 2
smoothSolver:  Solving for Uy, Initial residual = 0.00292402, Final residual = 9.68855e-07, No Iterations 2
DICPCG:  Solving for p, Initial residual = 0.0160679, Final residual = 0.000692991, No Iterations 18
time step continuity errors : sum local = 9.02863e-09, global = 2.77104e-10, cumulative = 1.02539e-07
DICPCG:  Solving for p, Initial residual = 0.00441837, Final residual = 9.03362e-07, No Iterations 117
time step continuity errors : sum local = 1.1694e-11, global = 1.43853e-13, cumulative = 1.02539e-07
ExecutionTime = 4.1 s  ClockTime = 7 s

Time = 0.29

Courant Number mean: 0.053009 max: 0.70484
smoothSolver:  Solving for Ux, Initial residual = 0.000718197, Final residual = 3.52724e-07, No Iterations 2
smoothSolver:  Solving for Uy, Initial residual = 0.00288886, Final residual = 9.60127e-07, No Iterations 2
DICPCG:  Solving for p, Initial residual = 0.0154319, Final residual = 0.000675766, No Iterations 18
time step continuity errors : sum local = 8.72789e-09, global = 2.60002e-10, cumulative = 1.02799e-07
DICPCG:  Solving for p, Initial residual = 0.00428615, Final residual = 8.19624e-07, No Iterations 117
time step continuity errors : sum local = 1.05238e-11, global = 1.77714e-13, cumulative = 1.028e-07
ExecutionTime = 4.19 s  ClockTime = 8 s

Time = 0.3

Courant Number mean: 0.0530073 max: 0.702754
smoothSolver:  Solving for Ux, Initial residual = 0.00069746, Final residual = 3.42961e-07, No Iterations 2
smoothSolver:  Solving for Uy, Initial residual = 0.00285559, Final residual = 9.52041e-07, No Iterations 2
DICPCG:  Solving for p, Initial residual = 0.0148378, Final residual = 0.000657693, No Iterations 18
time step continuity errors : sum local = 8.42654e-09, global = 2.45518e-10, cumulative = 1.03045e-07
DICPCG:  Solving for p, Initial residual = 0.00415261, Final residual = 9.20306e-07, No Iterations 116
time step continuity errors : sum local = 1.17261e-11, global = 2.7261e-13, cumulative = 1.03045e-07
ExecutionTime = 4.46 s  ClockTime = 8 s

Time = 0.31

Courant Number mean: 0.0530057 max: 0.700673
smoothSolver:  Solving for Ux, Initial residual = 0.000678477, Final residual = 3.33862e-07, No Iterations 2
smoothSolver:  Solving for Uy, Initial residual = 0.00282367, Final residual = 9.44058e-07, No Iterations 2
DICPCG:  Solving for p, Initial residual = 0.0142866, Final residual = 0.000648473, No Iterations 18
time step continuity errors : sum local = 8.24505e-09, global = 2.33929e-10, cumulative = 1.03279e-07
DICPCG:  Solving for p, Initial residual = 0.00403222, Final residual = 9.36297e-07, No Iterations 115
time step continuity errors : sum local = 1.1842e-11, global = 3.01903e-13, cumulative = 1.0328e-07
ExecutionTime = 4.55 s  ClockTime = 8 s

Time = 0.32

Courant Number mean: 0.0530042 max: 0.698603
smoothSolver:  Solving for Ux, Initial residual = 0.000661045, Final residual = 9.7591e-06, No Iterations 1
smoothSolver:  Solving for Uy, Initial residual = 0.00279421, Final residual = 9.36587e-07, No Iterations 2
DICPCG:  Solving for p, Initial residual = 0.0132614, Final residual = 0.000626633, No Iterations 19
time step continuity errors : sum local = 7.91281e-09, global = 3.29461e-10, cumulative = 1.03609e-07
DICPCG:  Solving for p, Initial residual = 0.00383107, Final residual = 9.9572e-07, No Iterations 107
time step continuity errors : sum local = 1.25116e-11, global = -1.15433e-15, cumulative = 1.03609e-07
ExecutionTime = 4.64 s  ClockTime = 8 s

Time = 0.33

Courant Number mean: 0.0530028 max: 0.696542
smoothSolver:  Solving for Ux, Initial residual = 0.000644372, Final residual = 9.50227e-06, No Iterations 1
smoothSolver:  Solving for Uy, Initial residual = 0.00276398, Final residual = 9.29328e-07, No Iterations 2
DICPCG:  Solving for p, Initial residual = 0.0127735, Final residual = 0.000590412, No Iterations 19
time step continuity errors : sum local = 7.40589e-09, global = 3.03178e-10, cumulative = 1.03912e-07
DICPCG:  Solving for p, Initial residual = 0.00370528, Final residual = 9.91903e-07, No Iterations 108
time step continuity errors : sum local = 1.23842e-11, global = 6.7749e-14, cumulative = 1.03912e-07
ExecutionTime = 4.72 s  ClockTime = 8 s

Time = 0.34

Courant Number mean: 0.0530015 max: 0.69451
smoothSolver:  Solving for Ux, Initial residual = 0.000629635, Final residual = 9.26449e-06, No Iterations 1
smoothSolver:  Solving for Uy, Initial residual = 0.00273958, Final residual = 9.22276e-07, No Iterations 2
DICPCG:  Solving for p, Initial residual = 0.0123041, Final residual = 0.00058027, No Iterations 19
time step continuity errors : sum local = 7.23188e-09, global = 2.94131e-10, cumulative = 1.04206e-07
DICPCG:  Solving for p, Initial residual = 0.0036033, Final residual = 8.15624e-07, No Iterations 109
time step continuity errors : sum local = 1.0121e-11, global = -8.34991e-14, cumulative = 1.04206e-07
ExecutionTime = 4.81 s  ClockTime = 8 s

Time = 0.35

Courant Number mean: 0.0530002 max: 0.692793
smoothSolver:  Solving for Ux, Initial residual = 0.000615826, Final residual = 9.04055e-06, No Iterations 1
smoothSolver:  Solving for Uy, Initial residual = 0.00271693, Final residual = 9.15538e-07, No Iterations 2
DICPCG:  Solving for p, Initial residual = 0.0118648, Final residual = 0.000572878, No Iterations 19
time step continuity errors : sum local = 7.09806e-09, global = 2.87317e-10, cumulative = 1.04494e-07
DICPCG:  Solving for p, Initial residual = 0.00350942, Final residual = 9.53992e-07, No Iterations 109
time step continuity errors : sum local = 1.17731e-11, global = -1.98611e-13, cumulative = 1.04493e-07
ExecutionTime = 4.89 s  ClockTime = 8 s

Time = 0.36

Courant Number mean: 0.052999 max: 0.691872
smoothSolver:  Solving for Ux, Initial residual = 0.00060292, Final residual = 8.82998e-06, No Iterations 1
smoothSolver:  Solving for Uy, Initial residual = 0.00269582, Final residual = 9.0883e-07, No Iterations 2
DICPCG:  Solving for p, Initial residual = 0.0114472, Final residual = 0.000567664, No Iterations 19
time step continuity errors : sum local = 6.99624e-09, global = 2.82203e-10, cumulative = 1.04776e-07
DICPCG:  Solving for p, Initial residual = 0.00342107, Final residual = 9.5151e-07, No Iterations 110
time step continuity errors : sum local = 1.16847e-11, global = -1.69302e-13, cumulative = 1.04775e-07
ExecutionTime = 4.97 s  ClockTime = 9 s

Time = 0.37

Courant Number mean: 0.0529979 max: 0.690931
smoothSolver:  Solving for Ux, Initial residual = 0.000590862, Final residual = 8.63056e-06, No Iterations 1
smoothSolver:  Solving for Uy, Initial residual = 0.00267638, Final residual = 9.02371e-07, No Iterations 2
DICPCG:  Solving for p, Initial residual = 0.0110561, Final residual = 0.000485766, No Iterations 21
time step continuity errors : sum local = 5.95784e-09, global = 3.50262e-10, cumulative = 1.05126e-07
DICPCG:  Solving for p, Initial residual = 0.00330222, Final residual = 9.87386e-07, No Iterations 116
time step continuity errors : sum local = 1.20692e-11, global = 6.49046e-14, cumulative = 1.05126e-07
ExecutionTime = 5.06 s  ClockTime = 9 s

Time = 0.38

Courant Number mean: 0.0529969 max: 0.689974
smoothSolver:  Solving for Ux, Initial residual = 0.00057948, Final residual = 8.44235e-06, No Iterations 1
smoothSolver:  Solving for Uy, Initial residual = 0.00265814, Final residual = 8.96089e-07, No Iterations 2
DICPCG:  Solving for p, Initial residual = 0.0106743, Final residual = 0.000484443, No Iterations 21
time step continuity errors : sum local = 5.91452e-09, global = 3.46871e-10, cumulative = 1.05473e-07
DICPCG:  Solving for p, Initial residual = 0.00322471, Final residual = 9.09434e-07, No Iterations 117
time step continuity errors : sum local = 1.1068e-11, global = 2.56528e-14, cumulative = 1.05473e-07
ExecutionTime = 5.15 s  ClockTime = 9 s

Time = 0.39

Courant Number mean: 0.0529959 max: 0.689019
smoothSolver:  Solving for Ux, Initial residual = 0.000568796, Final residual = 8.26468e-06, No Iterations 1
smoothSolver:  Solving for Uy, Initial residual = 0.00264072, Final residual = 8.89983e-07, No Iterations 2
DICPCG:  Solving for p, Initial residual = 0.0103303, Final residual = 0.000486248, No Iterations 21
time step continuity errors : sum local = 5.91128e-09, global = 3.44338e-10, cumulative = 1.05817e-07
DICPCG:  Solving for p, Initial residual = 0.00315487, Final residual = 9.42862e-07, No Iterations 117
time step continuity errors : sum local = 1.14275e-11, global = 3.79658e-14, cumulative = 1.05817e-07
ExecutionTime = 5.26 s  ClockTime = 9 s

Time = 0.4

Courant Number mean: 0.0529951 max: 0.688194
smoothSolver:  Solving for Ux, Initial residual = 0.000558717, Final residual = 8.09526e-06, No Iterations 1
smoothSolver:  Solving for Uy, Initial residual = 0.00262436, Final residual = 8.84015e-07, No Iterations 2
DICPCG:  Solving for p, Initial residual = 0.0100022, Final residual = 0.000489592, No Iterations 21
time step continuity errors : sum local = 5.92986e-09, global = 3.43006e-10, cumulative = 1.0616e-07
DICPCG:  Solving for p, Initial residual = 0.00308843, Final residual = 9.68266e-07, No Iterations 117
time step continuity errors : sum local = 1.16981e-11, global = 5.02222e-14, cumulative = 1.0616e-07
ExecutionTime = 5.54 s  ClockTime = 9 s

Time = 0.41

Courant Number mean: 0.0529943 max: 0.687361
smoothSolver:  Solving for Ux, Initial residual = 0.000549214, Final residual = 7.93456e-06, No Iterations 1
smoothSolver:  Solving for Uy, Initial residual = 0.00260906, Final residual = 8.78235e-07, No Iterations 2
DICPCG:  Solving for p, Initial residual = 0.00968693, Final residual = 0.00044528, No Iterations 22
time step continuity errors : sum local = 5.37898e-09, global = 3.55223e-10, cumulative = 1.06515e-07
DICPCG:  Solving for p, Initial residual = 0.00296266, Final residual = 8.61927e-07, No Iterations 118
time step continuity errors : sum local = 1.03927e-11, global = 5.39921e-14, cumulative = 1.06515e-07
ExecutionTime = 5.63 s  ClockTime = 9 s

Time = 0.42

Courant Number mean: 0.0529936 max: 0.686521
smoothSolver:  Solving for Ux, Initial residual = 0.000540253, Final residual = 7.78024e-06, No Iterations 1
smoothSolver:  Solving for Uy, Initial residual = 0.00259398, Final residual = 8.72461e-07, No Iterations 2
DICPCG:  Solving for p, Initial residual = 0.00937564, Final residual = 0.000456554, No Iterations 22
time step continuity errors : sum local = 5.50462e-09, global = 3.57047e-10, cumulative = 1.06872e-07
DICPCG:  Solving for p, Initial residual = 0.00290388, Final residual = 8.77763e-07, No Iterations 118
time step continuity errors : sum local = 1.0565e-11, global = 6.52937e-14, cumulative = 1.06873e-07
ExecutionTime = 5.72 s  ClockTime = 9 s

Time = 0.43

Courant Number mean: 0.0529929 max: 0.685676
smoothSolver:  Solving for Ux, Initial residual = 0.000531739, Final residual = 7.633e-06, No Iterations 1
smoothSolver:  Solving for Uy, Initial residual = 0.0025792, Final residual = 8.66814e-07, No Iterations 2
DICPCG:  Solving for p, Initial residual = 0.00908571, Final residual = 0.000452022, No Iterations 24
time step continuity errors : sum local = 5.44062e-09, global = 4.04829e-10, cumulative = 1.07277e-07
DICPCG:  Solving for p, Initial residual = 0.00283469, Final residual = 9.32893e-07, No Iterations 117
time step continuity errors : sum local = 1.12106e-11, global = 1.23097e-13, cumulative = 1.07277e-07
ExecutionTime = 5.81 s  ClockTime = 9 s

Time = 0.44

Courant Number mean: 0.0529923 max: 0.684827
smoothSolver:  Solving for Ux, Initial residual = 0.000523668, Final residual = 7.49216e-06, No Iterations 1
smoothSolver:  Solving for Uy, Initial residual = 0.00256461, Final residual = 8.61189e-07, No Iterations 2
DICPCG:  Solving for p, Initial residual = 0.00882637, Final residual = 0.000412941, No Iterations 31
time step continuity errors : sum local = 4.96238e-09, global = 6.15409e-10, cumulative = 1.07893e-07
DICPCG:  Solving for p, Initial residual = 0.00277472, Final residual = 9.284e-07, No Iterations 116
time step continuity errors : sum local = 1.11419e-11, global = 1.23951e-13, cumulative = 1.07893e-07
ExecutionTime = 5.91 s  ClockTime = 10 s

Time = 0.45

Courant Number mean: 0.0529917 max: 0.683974
smoothSolver:  Solving for Ux, Initial residual = 0.000516035, Final residual = 7.35613e-06, No Iterations 1
smoothSolver:  Solving for Uy, Initial residual = 0.00255029, Final residual = 8.5566e-07, No Iterations 2
DICPCG:  Solving for p, Initial residual = 0.0085771, Final residual = 0.00042875, No Iterations 31
time step continuity errors : sum local = 5.1445e-09, global = 6.27132e-10, cumulative = 1.0852e-07
DICPCG:  Solving for p, Initial residual = 0.00273354, Final residual = 9.80721e-07, No Iterations 116
time step continuity errors : sum local = 1.17527e-11, global = 1.01481e-13, cumulative = 1.0852e-07
ExecutionTime = 6.01 s  ClockTime = 10 s

Time = 0.46

Courant Number mean: 0.0529912 max: 0.683117
smoothSolver:  Solving for Ux, Initial residual = 0.000508837, Final residual = 7.22606e-06, No Iterations 1
smoothSolver:  Solving for Uy, Initial residual = 0.00253746, Final residual = 8.50147e-07, No Iterations 2
DICPCG:  Solving for p, Initial residual = 0.00834133, Final residual = 0.000366349, No Iterations 33
time step continuity errors : sum local = 4.39022e-09, global = 5.20076e-10, cumulative = 1.0904e-07
DICPCG:  Solving for p, Initial residual = 0.00265329, Final residual = 8.43779e-07, No Iterations 118
time step continuity errors : sum local = 1.01019e-11, global = -7.84495e-14, cumulative = 1.0904e-07
ExecutionTime = 6.11 s  ClockTime = 10 s

Time = 0.47

Courant Number mean: 0.0529907 max: 0.682257
smoothSolver:  Solving for Ux, Initial residual = 0.000501963, Final residual = 7.10094e-06, No Iterations 1
smoothSolver:  Solving for Uy, Initial residual = 0.00252586, Final residual = 8.44864e-07, No Iterations 2
DICPCG:  Solving for p, Initial residual = 0.00810356, Final residual = 0.000371038, No Iterations 33
time step continuity errors : sum local = 4.44309e-09, global = 5.14763e-10, cumulative = 1.09555e-07
DICPCG:  Solving for p, Initial residual = 0.00260364, Final residual = 8.65989e-07, No Iterations 118
time step continuity errors : sum local = 1.0363e-11, global = -8.23872e-14, cumulative = 1.09555e-07
ExecutionTime = 6.2 s  ClockTime = 10 s

Time = 0.48

Courant Number mean: 0.0529903 max: 0.681393
smoothSolver:  Solving for Ux, Initial residual = 0.000495423, Final residual = 6.98035e-06, No Iterations 1
smoothSolver:  Solving for Uy, Initial residual = 0.00251511, Final residual = 8.39483e-07, No Iterations 2
DICPCG:  Solving for p, Initial residual = 0.00788874, Final residual = 0.000372907, No Iterations 33
time step continuity errors : sum local = 4.46414e-09, global = 5.05895e-10, cumulative = 1.10061e-07
DICPCG:  Solving for p, Initial residual = 0.00255561, Final residual = 8.79502e-07, No Iterations 118
time step continuity errors : sum local = 1.05245e-11, global = -7.97046e-14, cumulative = 1.10061e-07
ExecutionTime = 6.3 s  ClockTime = 10 s

Time = 0.49

Courant Number mean: 0.0529899 max: 0.680525
smoothSolver:  Solving for Ux, Initial residual = 0.000489172, Final residual = 6.86368e-06, No Iterations 1
smoothSolver:  Solving for Uy, Initial residual = 0.0025064, Final residual = 8.34044e-07, No Iterations 2
DICPCG:  Solving for p, Initial residual = 0.00768685, Final residual = 0.000375249, No Iterations 33
time step continuity errors : sum local = 4.49255e-09, global = 4.97298e-10, cumulative = 1.10558e-07
DICPCG:  Solving for p, Initial residual = 0.00251047, Final residual = 8.86523e-07, No Iterations 118
time step continuity errors : sum local = 1.06107e-11, global = -7.56695e-14, cumulative = 1.10558e-07
ExecutionTime = 6.4 s  ClockTime = 10 s

Time = 0.5

Courant Number mean: 0.0529896 max: 0.679653
smoothSolver:  Solving for Ux, Initial residual = 0.000483196, Final residual = 6.75068e-06, No Iterations 1
smoothSolver:  Solving for Uy, Initial residual = 0.00250044, Final residual = 8.28706e-07, No Iterations 2
DICPCG:  Solving for p, Initial residual = 0.00749582, Final residual = 0.000328022, No Iterations 34
time step continuity errors : sum local = 3.92783e-09, global = 4.99723e-10, cumulative = 1.11058e-07
DICPCG:  Solving for p, Initial residual = 0.00240672, Final residual = 9.23918e-07, No Iterations 118
time step continuity errors : sum local = 1.10611e-11, global = -7.44732e-14, cumulative = 1.11058e-07
ExecutionTime = 6.68 s  ClockTime = 10 s

Time = 0.51

Courant Number mean: 0.0529893 max: 0.678871
smoothSolver:  Solving for Ux, Initial residual = 0.000477451, Final residual = 6.64248e-06, No Iterations 1
smoothSolver:  Solving for Uy, Initial residual = 0.00249485, Final residual = 8.23421e-07, No Iterations 2
DICPCG:  Solving for p, Initial residual = 0.00731818, Final residual = 0.000331785, No Iterations 34
time step continuity errors : sum local = 3.97372e-09, global = 4.91699e-10, cumulative = 1.11549e-07
DICPCG:  Solving for p, Initial residual = 0.00236855, Final residual = 9.21918e-07, No Iterations 118
time step continuity errors : sum local = 1.10398e-11, global = -6.75924e-14, cumulative = 1.11549e-07
ExecutionTime = 6.78 s  ClockTime = 11 s

Time = 0.52

Courant Number mean: 0.0529891 max: 0.678087
smoothSolver:  Solving for Ux, Initial residual = 0.000471989, Final residual = 6.5376e-06, No Iterations 1
smoothSolver:  Solving for Uy, Initial residual = 0.00248939, Final residual = 8.18101e-07, No Iterations 2
DICPCG:  Solving for p, Initial residual = 0.00714841, Final residual = 0.000329935, No Iterations 34
time step continuity errors : sum local = 3.95263e-09, global = 4.84102e-10, cumulative = 1.12033e-07
DICPCG:  Solving for p, Initial residual = 0.00232613, Final residual = 9.20336e-07, No Iterations 118
time step continuity errors : sum local = 1.10246e-11, global = -5.88624e-14, cumulative = 1.12033e-07
ExecutionTime = 6.87 s  ClockTime = 11 s

Time = 0.53

Courant Number mean: 0.0529889 max: 0.677295
smoothSolver:  Solving for Ux, Initial residual = 0.000466731, Final residual = 6.43576e-06, No Iterations 1
smoothSolver:  Solving for Uy, Initial residual = 0.00248441, Final residual = 8.12813e-07, No Iterations 2
DICPCG:  Solving for p, Initial residual = 0.00698767, Final residual = 0.000332006, No Iterations 34
time step continuity errors : sum local = 3.97882e-09, global = 4.75365e-10, cumulative = 1.12509e-07
DICPCG:  Solving for p, Initial residual = 0.00229105, Final residual = 9.21991e-07, No Iterations 118
time step continuity errors : sum local = 1.10485e-11, global = -4.97736e-14, cumulative = 1.12509e-07
ExecutionTime = 6.97 s  ClockTime = 11 s

Time = 0.54

Courant Number mean: 0.0529888 max: 0.676493
smoothSolver:  Solving for Ux, Initial residual = 0.000461681, Final residual = 6.33743e-06, No Iterations 1
smoothSolver:  Solving for Uy, Initial residual = 0.00247973, Final residual = 8.07568e-07, No Iterations 2
DICPCG:  Solving for p, Initial residual = 0.00683448, Final residual = 0.000330267, No Iterations 34
time step continuity errors : sum local = 3.95961e-09, global = 4.68602e-10, cumulative = 1.12977e-07
DICPCG:  Solving for p, Initial residual = 0.00225337, Final residual = 9.15133e-07, No Iterations 118
time step continuity errors : sum local = 1.09715e-11, global = -4.09955e-14, cumulative = 1.12977e-07
ExecutionTime = 7.06 s  ClockTime = 11 s

Time = 0.55

Courant Number mean: 0.0529887 max: 0.675682
smoothSolver:  Solving for Ux, Initial residual = 0.000456868, Final residual = 6.24237e-06, No Iterations 1
smoothSolver:  Solving for Uy, Initial residual = 0.00247489, Final residual = 8.02378e-07, No Iterations 2
DICPCG:  Solving for p, Initial residual = 0.00669274, Final residual = 0.000331936, No Iterations 34
time step continuity errors : sum local = 3.98184e-09, global = 4.60449e-10, cumulative = 1.13438e-07
DICPCG:  Solving for p, Initial residual = 0.00222125, Final residual = 9.14684e-07, No Iterations 118
time step continuity errors : sum local = 1.09739e-11, global = -3.24081e-14, cumulative = 1.13438e-07
ExecutionTime = 7.16 s  ClockTime = 11 s

Time = 0.56

Courant Number mean: 0.0529886 max: 0.674863
smoothSolver:  Solving for Ux, Initial residual = 0.000452252, Final residual = 6.15039e-06, No Iterations 1
smoothSolver:  Solving for Uy, Initial residual = 0.00246969, Final residual = 7.97225e-07, No Iterations 2
DICPCG:  Solving for p, Initial residual = 0.00656025, Final residual = 0.000272345, No Iterations 35
time step continuity errors : sum local = 3.26932e-09, global = 4.75519e-10, cumulative = 1.13913e-07
DICPCG:  Solving for p, Initial residual = 0.00215188, Final residual = 9.35534e-07, No Iterations 118
time step continuity errors : sum local = 1.12324e-11, global = -2.29895e-14, cumulative = 1.13913e-07
ExecutionTime = 7.25 s  ClockTime = 11 s

Time = 0.57

Courant Number mean: 0.0529886 max: 0.674034
smoothSolver:  Solving for Ux, Initial residual = 0.000447861, Final residual = 6.06144e-06, No Iterations 1
smoothSolver:  Solving for Uy, Initial residual = 0.00246408, Final residual = 7.92113e-07, No Iterations 2
DICPCG:  Solving for p, Initial residual = 0.00643101, Final residual = 0.000271393, No Iterations 35
time step continuity errors : sum local = 3.26036e-09, global = 4.70247e-10, cumulative = 1.14383e-07
DICPCG:  Solving for p, Initial residual = 0.00211833, Final residual = 9.32516e-07, No Iterations 118
time step continuity errors : sum local = 1.12052e-11, global = -1.4199e-14, cumulative = 1.14383e-07
ExecutionTime = 7.34 s  ClockTime = 11 s

Time = 0.58

Courant Number mean: 0.0529886 max: 0.673196
smoothSolver:  Solving for Ux, Initial residual = 0.000443655, Final residual = 5.97501e-06, No Iterations 1
smoothSolver:  Solving for Uy, Initial residual = 0.00245819, Final residual = 7.86986e-07, No Iterations 2
DICPCG:  Solving for p, Initial residual = 0.00631424, Final residual = 0.000269296, No Iterations 35
time step continuity errors : sum local = 3.23791e-09, global = 4.639e-10, cumulative = 1.14847e-07
DICPCG:  Solving for p, Initial residual = 0.00208569, Final residual = 9.24569e-07, No Iterations 118
time step continuity errors : sum local = 1.11201e-11, global = -4.55338e-15, cumulative = 1.14847e-07
ExecutionTime = 7.44 s  ClockTime = 11 s

Time = 0.59

Courant Number mean: 0.0529887 max: 0.672351
smoothSolver:  Solving for Ux, Initial residual = 0.000439587, Final residual = 5.8914e-06, No Iterations 1
smoothSolver:  Solving for Uy, Initial residual = 0.00245199, Final residual = 7.81969e-07, No Iterations 2
DICPCG:  Solving for p, Initial residual = 0.00620531, Final residual = 0.000270058, No Iterations 35
time step continuity errors : sum local = 3.24998e-09, global = 4.58034e-10, cumulative = 1.15305e-07
DICPCG:  Solving for p, Initial residual = 0.00205743, Final residual = 9.13137e-07, No Iterations 118
time step continuity errors : sum local = 1.09922e-11, global = 6.29709e-15, cumulative = 1.15305e-07
ExecutionTime = 7.54 s  ClockTime = 12 s

Time = 0.6

Courant Number mean: 0.0529888 max: 0.671499
smoothSolver:  Solving for Ux, Initial residual = 0.000435653, Final residual = 5.81008e-06, No Iterations 1
smoothSolver:  Solving for Uy, Initial residual = 0.00244557, Final residual = 7.76956e-07, No Iterations 2
DICPCG:  Solving for p, Initial residual = 0.00610191, Final residual = 0.000272828, No Iterations 35
time step continuity errors : sum local = 3.28616e-09, global = 4.51688e-10, cumulative = 1.15757e-07
DICPCG:  Solving for p, Initial residual = 0.00203064, Final residual = 9.03105e-07, No Iterations 118
time step continuity errors : sum local = 1.08807e-11, global = 1.56383e-14, cumulative = 1.15757e-07
ExecutionTime = 7.83 s  ClockTime = 12 s

Time = 0.61

Courant Number mean: 0.0529889 max: 0.670817
smoothSolver:  Solving for Ux, Initial residual = 0.00043187, Final residual = 5.7307e-06, No Iterations 1
smoothSolver:  Solving for Uy, Initial residual = 0.00243933, Final residual = 7.71989e-07, No Iterations 2
DICPCG:  Solving for p, Initial residual = 0.0060045, Final residual = 0.000270877, No Iterations 35
time step continuity errors : sum local = 3.26561e-09, global = 4.46009e-10, cumulative = 1.16203e-07
DICPCG:  Solving for p, Initial residual = 0.00200321, Final residual = 9.03135e-07, No Iterations 118
time step continuity errors : sum local = 1.08917e-11, global = 2.30006e-14, cumulative = 1.16203e-07
ExecutionTime = 7.92 s  ClockTime = 12 s

Time = 0.62

Courant Number mean: 0.0529891 max: 0.670341
smoothSolver:  Solving for Ux, Initial residual = 0.000428193, Final residual = 5.65286e-06, No Iterations 1
smoothSolver:  Solving for Uy, Initial residual = 0.00243293, Final residual = 7.6701e-07, No Iterations 2
DICPCG:  Solving for p, Initial residual = 0.00591206, Final residual = 0.000274406, No Iterations 35
time step continuity errors : sum local = 3.31139e-09, global = 4.39767e-10, cumulative = 1.16643e-07
DICPCG:  Solving for p, Initial residual = 0.00197968, Final residual = 9.00765e-07, No Iterations 118
time step continuity errors : sum local = 1.08744e-11, global = 3.10079e-14, cumulative = 1.16643e-07
ExecutionTime = 8.02 s  ClockTime = 12 s

Time = 0.63

Courant Number mean: 0.0529894 max: 0.669845
smoothSolver:  Solving for Ux, Initial residual = 0.000424604, Final residual = 5.57656e-06, No Iterations 1
smoothSolver:  Solving for Uy, Initial residual = 0.00242625, Final residual = 7.62053e-07, No Iterations 2
DICPCG:  Solving for p, Initial residual = 0.00582624, Final residual = 0.000272024, No Iterations 35
time step continuity errors : sum local = 3.28613e-09, global = 4.34062e-10, cumulative = 1.17077e-07
DICPCG:  Solving for p, Initial residual = 0.00195245, Final residual = 8.93645e-07, No Iterations 118
time step continuity errors : sum local = 1.08004e-11, global = 3.89023e-14, cumulative = 1.17077e-07
ExecutionTime = 8.11 s  ClockTime = 12 s

Time = 0.64

Courant Number mean: 0.0529897 max: 0.669329
smoothSolver:  Solving for Ux, Initial residual = 0.000421134, Final residual = 5.50222e-06, No Iterations 1
smoothSolver:  Solving for Uy, Initial residual = 0.00241946, Final residual = 7.57101e-07, No Iterations 2
DICPCG:  Solving for p, Initial residual = 0.00574601, Final residual = 0.00027269, No Iterations 35
time step continuity errors : sum local = 3.29776e-09, global = 4.27835e-10, cumulative = 1.17505e-07
DICPCG:  Solving for p, Initial residual = 0.00192934, Final residual = 8.88159e-07, No Iterations 118
time step continuity errors : sum local = 1.07458e-11, global = 4.63096e-14, cumulative = 1.17505e-07
ExecutionTime = 8.21 s  ClockTime = 12 s

Time = 0.65

Courant Number mean: 0.05299 max: 0.668796
smoothSolver:  Solving for Ux, Initial residual = 0.000417784, Final residual = 5.42916e-06, No Iterations 1
smoothSolver:  Solving for Uy, Initial residual = 0.00241251, Final residual = 7.5216e-07, No Iterations 2
DICPCG:  Solving for p, Initial residual = 0.00567628, Final residual = 0.000269264, No Iterations 35
time step continuity errors : sum local = 3.25982e-09, global = 4.22305e-10, cumulative = 1.17927e-07
DICPCG:  Solving for p, Initial residual = 0.00190433, Final residual = 8.85369e-07, No Iterations 118
time step continuity errors : sum local = 1.07235e-11, global = 5.2713e-14, cumulative = 1.17927e-07
ExecutionTime = 8.31 s  ClockTime = 12 s

Time = 0.66

Courant Number mean: 0.0529904 max: 0.668245
smoothSolver:  Solving for Ux, Initial residual = 0.000414496, Final residual = 5.35753e-06, No Iterations 1
smoothSolver:  Solving for Uy, Initial residual = 0.00240538, Final residual = 7.47281e-07, No Iterations 2
DICPCG:  Solving for p, Initial residual = 0.00561308, Final residual = 0.000270878, No Iterations 35
time step continuity errors : sum local = 3.28278e-09, global = 4.16275e-10, cumulative = 1.18343e-07
DICPCG:  Solving for p, Initial residual = 0.00188424, Final residual = 8.79047e-07, No Iterations 118
time step continuity errors : sum local = 1.06579e-11, global = 5.95054e-14, cumulative = 1.18343e-07
ExecutionTime = 8.4 s  ClockTime = 12 s

Time = 0.67

Courant Number mean: 0.0529909 max: 0.667679
smoothSolver:  Solving for Ux, Initial residual = 0.000411274, Final residual = 5.28741e-06, No Iterations 1
smoothSolver:  Solving for Uy, Initial residual = 0.0023982, Final residual = 7.42418e-07, No Iterations 2
DICPCG:  Solving for p, Initial residual = 0.00555271, Final residual = 0.000268567, No Iterations 35
time step continuity errors : sum local = 3.25821e-09, global = 4.10821e-10, cumulative = 1.18754e-07
DICPCG:  Solving for p, Initial residual = 0.0018629, Final residual = 9.99876e-07, No Iterations 117
time step continuity errors : sum local = 1.2136e-11, global = 7.40029e-14, cumulative = 1.18754e-07
ExecutionTime = 8.49 s  ClockTime = 13 s

Time = 0.68

Courant Number mean: 0.0529914 max: 0.667099
smoothSolver:  Solving for Ux, Initial residual = 0.000408177, Final residual = 5.2189e-06, No Iterations 1
smoothSolver:  Solving for Uy, Initial residual = 0.00239149, Final residual = 7.37484e-07, No Iterations 2
DICPCG:  Solving for p, Initial residual = 0.00549466, Final residual = 0.000269736, No Iterations 35
time step continuity errors : sum local = 3.27588e-09, global = 4.04995e-10, cumulative = 1.19159e-07
DICPCG:  Solving for p, Initial residual = 0.00184479, Final residual = 9.90845e-07, No Iterations 117
time step continuity errors : sum local = 1.20394e-11, global = 7.64767e-14, cumulative = 1.19159e-07
ExecutionTime = 8.59 s  ClockTime = 13 s

Time = 0.69

Courant Number mean: 0.052992 max: 0.666507
smoothSolver:  Solving for Ux, Initial residual = 0.000405164, Final residual = 5.15129e-06, No Iterations 1
smoothSolver:  Solving for Uy, Initial residual = 0.00238495, Final residual = 7.32574e-07, No Iterations 2
DICPCG:  Solving for p, Initial residual = 0.00543892, Final residual = 0.000268454, No Iterations 35
time step continuity errors : sum local = 3.26383e-09, global = 3.99383e-10, cumulative = 1.19559e-07
DICPCG:  Solving for p, Initial residual = 0.00182568, Final residual = 9.9835e-07, No Iterations 117
time step continuity errors : sum local = 1.21436e-11, global = 8.1116e-14, cumulative = 1.19559e-07
ExecutionTime = 8.69 s  ClockTime = 13 s

Time = 0.7

Courant Number mean: 0.0529926 max: 0.665904
smoothSolver:  Solving for Ux, Initial residual = 0.000402229, Final residual = 5.08478e-06, No Iterations 1
smoothSolver:  Solving for Uy, Initial residual = 0.00237838, Final residual = 7.2761e-07, No Iterations 2
DICPCG:  Solving for p, Initial residual = 0.00538671, Final residual = 0.000268212, No Iterations 35
time step continuity errors : sum local = 3.26434e-09, global = 3.93795e-10, cumulative = 1.19953e-07
DICPCG:  Solving for p, Initial residual = 0.00180872, Final residual = 9.8777e-07, No Iterations 117
time step continuity errors : sum local = 1.20277e-11, global = 8.23487e-14, cumulative = 1.19953e-07
ExecutionTime = 8.97 s  ClockTime = 13 s

Time = 0.71

Courant Number mean: 0.0529933 max: 0.665293
smoothSolver:  Solving for Ux, Initial residual = 0.000399373, Final residual = 5.01971e-06, No Iterations 1
smoothSolver:  Solving for Uy, Initial residual = 0.00237145, Final residual = 7.22711e-07, No Iterations 2
DICPCG:  Solving for p, Initial residual = 0.00533649, Final residual = 0.000230835, No Iterations 36
time step continuity errors : sum local = 2.81232e-09, global = 3.67705e-10, cumulative = 1.2032e-07
DICPCG:  Solving for p, Initial residual = 0.00176705, Final residual = 9.72673e-07, No Iterations 117
time step continuity errors : sum local = 1.1856e-11, global = 8.74324e-14, cumulative = 1.20321e-07
ExecutionTime = 9.06 s  ClockTime = 13 s

Time = 0.72

Courant Number mean: 0.0529941 max: 0.664674
smoothSolver:  Solving for Ux, Initial residual = 0.000396592, Final residual = 4.95592e-06, No Iterations 1
smoothSolver:  Solving for Uy, Initial residual = 0.00236449, Final residual = 7.17807e-07, No Iterations 2
DICPCG:  Solving for p, Initial residual = 0.00528909, Final residual = 0.000232231, No Iterations 36
time step continuity errors : sum local = 2.83217e-09, global = 3.61637e-10, cumulative = 1.20682e-07
DICPCG:  Solving for p, Initial residual = 0.00175358, Final residual = 9.65487e-07, No Iterations 117
time step continuity errors : sum local = 1.17803e-11, global = 8.85323e-14, cumulative = 1.20682e-07
ExecutionTime = 9.16 s  ClockTime = 14 s

Time = 0.73

Courant Number mean: 0.0529949 max: 0.664049
smoothSolver:  Solving for Ux, Initial residual = 0.000393874, Final residual = 4.89347e-06, No Iterations 1
smoothSolver:  Solving for Uy, Initial residual = 0.00235755, Final residual = 7.12851e-07, No Iterations 2
DICPCG:  Solving for p, Initial residual = 0.00524303, Final residual = 0.00023183, No Iterations 36
time step continuity errors : sum local = 2.83011e-09, global = 3.5722e-10, cumulative = 1.21039e-07
DICPCG:  Solving for p, Initial residual = 0.00173648, Final residual = 9.6367e-07, No Iterations 117
time step continuity errors : sum local = 1.17698e-11, global = 8.90165e-14, cumulative = 1.2104e-07
ExecutionTime = 9.26 s  ClockTime = 14 s

Time = 0.74

Courant Number mean: 0.0529957 max: 0.66342
smoothSolver:  Solving for Ux, Initial residual = 0.000391201, Final residual = 4.83213e-06, No Iterations 1
smoothSolver:  Solving for Uy, Initial residual = 0.0023505, Final residual = 7.0793e-07, No Iterations 2
DICPCG:  Solving for p, Initial residual = 0.00519769, Final residual = 0.000232583, No Iterations 36
time step continuity errors : sum local = 2.84212e-09, global = 3.51236e-10, cumulative = 1.21391e-07
DICPCG:  Solving for p, Initial residual = 0.00172175, Final residual = 9.56888e-07, No Iterations 117
time step continuity errors : sum local = 1.16988e-11, global = 8.93042e-14, cumulative = 1.21391e-07
ExecutionTime = 9.36 s  ClockTime = 14 s

Time = 0.75

Courant Number mean: 0.0529966 max: 0.662788
smoothSolver:  Solving for Ux, Initial residual = 0.000388574, Final residual = 4.77165e-06, No Iterations 1
smoothSolver:  Solving for Uy, Initial residual = 0.00234329, Final residual = 7.03045e-07, No Iterations 2
DICPCG:  Solving for p, Initial residual = 0.00515393, Final residual = 0.000231656, No Iterations 36
time step continuity errors : sum local = 2.83364e-09, global = 3.47735e-10, cumulative = 1.21739e-07
DICPCG:  Solving for p, Initial residual = 0.00170518, Final residual = 9.40231e-07, No Iterations 117
time step continuity errors : sum local = 1.15068e-11, global = 8.92295e-14, cumulative = 1.21739e-07
ExecutionTime = 9.46 s  ClockTime = 14 s

Time = 0.76

Courant Number mean: 0.0529976 max: 0.662154
smoothSolver:  Solving for Ux, Initial residual = 0.000385993, Final residual = 4.7117e-06, No Iterations 1
smoothSolver:  Solving for Uy, Initial residual = 0.00233615, Final residual = 6.98139e-07, No Iterations 2
DICPCG:  Solving for p, Initial residual = 0.00511051, Final residual = 0.000233372, No Iterations 36
time step continuity errors : sum local = 2.85748e-09, global = 3.42384e-10, cumulative = 1.22081e-07
DICPCG:  Solving for p, Initial residual = 0.00169249, Final residual = 9.28555e-07, No Iterations 117
time step continuity errors : sum local = 1.13751e-11, global = 8.8883e-14, cumulative = 1.22081e-07
ExecutionTime = 9.56 s  ClockTime = 14 s

Time = 0.77

Courant Number mean: 0.0529986 max: 0.661521
smoothSolver:  Solving for Ux, Initial residual = 0.000383463, Final residual = 4.65253e-06, No Iterations 1
smoothSolver:  Solving for Uy, Initial residual = 0.00232958, Final residual = 6.93193e-07, No Iterations 2
DICPCG:  Solving for p, Initial residual = 0.0050674, Final residual = 0.000232131, No Iterations 36
time step continuity errors : sum local = 2.84499e-09, global = 3.39066e-10, cumulative = 1.2242e-07
DICPCG:  Solving for p, Initial residual = 0.00167836, Final residual = 9.18114e-07, No Iterations 117
time step continuity errors : sum local = 1.12578e-11, global = 8.85789e-14, cumulative = 1.2242e-07
ExecutionTime = 9.65 s  ClockTime = 14 s

Time = 0.78

Courant Number mean: 0.0529997 max: 0.660888
smoothSolver:  Solving for Ux, Initial residual = 0.000380981, Final residual = 4.59432e-06, No Iterations 1
smoothSolver:  Solving for Uy, Initial residual = 0.00232481, Final residual = 6.88273e-07, No Iterations 2
DICPCG:  Solving for p, Initial residual = 0.00502529, Final residual = 0.000232937, No Iterations 36
time step continuity errors : sum local = 2.85754e-09, global = 3.33395e-10, cumulative = 1.22754e-07
DICPCG:  Solving for p, Initial residual = 0.00166735, Final residual = 9.01424e-07, No Iterations 117
time step continuity errors : sum local = 1.10635e-11, global = 8.81552e-14, cumulative = 1.22754e-07
ExecutionTime = 9.75 s  ClockTime = 14 s

Time = 0.79

Courant Number mean: 0.0530009 max: 0.660258
smoothSolver:  Solving for Ux, Initial residual = 0.000378542, Final residual = 4.53712e-06, No Iterations 1
smoothSolver:  Solving for Uy, Initial residual = 0.0023199, Final residual = 6.83363e-07, No Iterations 2
DICPCG:  Solving for p, Initial residual = 0.00498644, Final residual = 0.000231235, No Iterations 36
time step continuity errors : sum local = 2.83925e-09, global = 3.29637e-10, cumulative = 1.23083e-07
DICPCG:  Solving for p, Initial residual = 0.0016532, Final residual = 8.97645e-07, No Iterations 117
time step continuity errors : sum local = 1.1027e-11, global = 8.84186e-14, cumulative = 1.23084e-07
ExecutionTime = 9.84 s  ClockTime = 14 s

Time = 0.8

Courant Number mean: 0.0530022 max: 0.659631
smoothSolver:  Solving for Ux, Initial residual = 0.000376168, Final residual = 4.48094e-06, No Iterations 1
smoothSolver:  Solving for Uy, Initial residual = 0.00231468, Final residual = 6.78411e-07, No Iterations 2
DICPCG:  Solving for p, Initial residual = 0.00494944, Final residual = 0.000232205, No Iterations 36
time step continuity errors : sum local = 2.85385e-09, global = 3.23721e-10, cumulative = 1.23407e-07
DICPCG:  Solving for p, Initial residual = 0.00164296, Final residual = 8.9009e-07, No Iterations 117
time step continuity errors : sum local = 1.0945e-11, global = 8.84521e-14, cumulative = 1.23407e-07
ExecutionTime = 10.13 s  ClockTime = 15 s

Time = 0.81

Courant Number mean: 0.0530034 max: 0.659008
smoothSolver:  Solving for Ux, Initial residual = 0.000373825, Final residual = 4.42535e-06, No Iterations 1
smoothSolver:  Solving for Uy, Initial residual = 0.00230935, Final residual = 6.73447e-07, No Iterations 2
DICPCG:  Solving for p, Initial residual = 0.00491418, Final residual = 0.000230228, No Iterations 36
time step continuity errors : sum local = 2.83235e-09, global = 3.19689e-10, cumulative = 1.23727e-07
DICPCG:  Solving for p, Initial residual = 0.00162775, Final residual = 8.81622e-07, No Iterations 117
time step continuity errors : sum local = 1.08518e-11, global = 8.89368e-14, cumulative = 1.23727e-07
ExecutionTime = 10.23 s  ClockTime = 15 s

Time = 0.82

Courant Number mean: 0.0530047 max: 0.65839
smoothSolver:  Solving for Ux, Initial residual = 0.000371509, Final residual = 4.37027e-06, No Iterations 1
smoothSolver:  Solving for Uy, Initial residual = 0.00230394, Final residual = 6.6851e-07, No Iterations 2
DICPCG:  Solving for p, Initial residual = 0.00487938, Final residual = 0.000231218, No Iterations 36
time step continuity errors : sum local = 2.84736e-09, global = 3.1361e-10, cumulative = 1.24041e-07
DICPCG:  Solving for p, Initial residual = 0.00161764, Final residual = 8.77574e-07, No Iterations 117
time step continuity errors : sum local = 1.08127e-11, global = 8.91361e-14, cumulative = 1.24041e-07
ExecutionTime = 10.32 s  ClockTime = 15 s

Time = 0.83

Courant Number mean: 0.0530061 max: 0.657865
smoothSolver:  Solving for Ux, Initial residual = 0.000369229, Final residual = 4.31609e-06, No Iterations 1
smoothSolver:  Solving for Uy, Initial residual = 0.00229845, Final residual = 6.63542e-07, No Iterations 2
DICPCG:  Solving for p, Initial residual = 0.00484472, Final residual = 0.000228763, No Iterations 36
time step continuity errors : sum local = 2.81993e-09, global = 3.09357e-10, cumulative = 1.2435e-07
DICPCG:  Solving for p, Initial residual = 0.00160189, Final residual = 9.97451e-07, No Iterations 116
time step continuity errors : sum local = 1.2302e-11, global = 9.84706e-14, cumulative = 1.2435e-07
ExecutionTime = 10.41 s  ClockTime = 15 s

Time = 0.84

Courant Number mean: 0.0530075 max: 0.657357
smoothSolver:  Solving for Ux, Initial residual = 0.00036699, Final residual = 4.26256e-06, No Iterations 1
smoothSolver:  Solving for Uy, Initial residual = 0.00229317, Final residual = 6.58562e-07, No Iterations 2
DICPCG:  Solving for p, Initial residual = 0.00481024, Final residual = 0.000229592, No Iterations 36
time step continuity errors : sum local = 2.833e-09, global = 3.03148e-10, cumulative = 1.24653e-07
DICPCG:  Solving for p, Initial residual = 0.0015916, Final residual = 9.86589e-07, No Iterations 116
time step continuity errors : sum local = 1.21806e-11, global = 9.48468e-14, cumulative = 1.24654e-07
ExecutionTime = 10.51 s  ClockTime = 15 s

Time = 0.85

Courant Number mean: 0.053009 max: 0.656856
smoothSolver:  Solving for Ux, Initial residual = 0.000364786, Final residual = 4.2097e-06, No Iterations 1
smoothSolver:  Solving for Uy, Initial residual = 0.00228766, Final residual = 6.53641e-07, No Iterations 2
DICPCG:  Solving for p, Initial residual = 0.00477559, Final residual = 0.000226409, No Iterations 36
time step continuity errors : sum local = 2.79656e-09, global = 2.98685e-10, cumulative = 1.24952e-07
DICPCG:  Solving for p, Initial residual = 0.00157528, Final residual = 9.82041e-07, No Iterations 116
time step continuity errors : sum local = 1.21366e-11, global = 9.158e-14, cumulative = 1.24952e-07
ExecutionTime = 10.61 s  ClockTime = 15 s

Time = 0.86

Courant Number mean: 0.0530105 max: 0.656363
smoothSolver:  Solving for Ux, Initial residual = 0.000362605, Final residual = 4.1576e-06, No Iterations 1
smoothSolver:  Solving for Uy, Initial residual = 0.00228205, Final residual = 6.48766e-07, No Iterations 2
DICPCG:  Solving for p, Initial residual = 0.00474097, Final residual = 0.000227101, No Iterations 36
time step continuity errors : sum local = 2.80795e-09, global = 2.92353e-10, cumulative = 1.25245e-07
DICPCG:  Solving for p, Initial residual = 0.0015648, Final residual = 9.72282e-07, No Iterations 116
time step continuity errors : sum local = 1.20284e-11, global = 8.88339e-14, cumulative = 1.25245e-07
ExecutionTime = 10.71 s  ClockTime = 15 s

Time = 0.87

Courant Number mean: 0.053012 max: 0.655876
smoothSolver:  Solving for Ux, Initial residual = 0.000360443, Final residual = 4.10614e-06, No Iterations 1
smoothSolver:  Solving for Uy, Initial residual = 0.00227636, Final residual = 6.43877e-07, No Iterations 2
DICPCG:  Solving for p, Initial residual = 0.00470595, Final residual = 0.000223453, No Iterations 36
time step continuity errors : sum local = 2.76567e-09, global = 2.87697e-10, cumulative = 1.25532e-07
DICPCG:  Solving for p, Initial residual = 0.00154806, Final residual = 9.6519e-07, No Iterations 116
time step continuity errors : sum local = 1.19529e-11, global = 8.65185e-14, cumulative = 1.25533e-07
ExecutionTime = 10.81 s  ClockTime = 15 s

Time = 0.88

Courant Number mean: 0.0530136 max: 0.655396
smoothSolver:  Solving for Ux, Initial residual = 0.000358311, Final residual = 4.05566e-06, No Iterations 1
smoothSolver:  Solving for Uy, Initial residual = 0.00227035, Final residual = 6.39033e-07, No Iterations 2
DICPCG:  Solving for p, Initial residual = 0.00467025, Final residual = 0.00022411, No Iterations 36
time step continuity errors : sum local = 2.77662e-09, global = 2.81269e-10, cumulative = 1.25814e-07
DICPCG:  Solving for p, Initial residual = 0.00153804, Final residual = 9.58421e-07, No Iterations 116
time step continuity errors : sum local = 1.1881e-11, global = 8.4969e-14, cumulative = 1.25814e-07
ExecutionTime = 10.9 s  ClockTime = 16 s

Time = 0.89

Courant Number mean: 0.0530152 max: 0.654923
smoothSolver:  Solving for Ux, Initial residual = 0.000356205, Final residual = 4.0059e-06, No Iterations 1
smoothSolver:  Solving for Uy, Initial residual = 0.00226412, Final residual = 6.34193e-07, No Iterations 2
DICPCG:  Solving for p, Initial residual = 0.00463509, Final residual = 0.000220119, No Iterations 36
time step continuity errors : sum local = 2.72988e-09, global = 2.76428e-10, cumulative = 1.2609e-07
DICPCG:  Solving for p, Initial residual = 0.0015215, Final residual = 9.50881e-07, No Iterations 116
time step continuity errors : sum local = 1.17993e-11, global = 8.42588e-14, cumulative = 1.2609e-07
ExecutionTime = 11 s  ClockTime = 16 s

Time = 0.9

Courant Number mean: 0.0530169 max: 0.654456
smoothSolver:  Solving for Ux, Initial residual = 0.000354138, Final residual = 3.9567e-06, No Iterations 1
smoothSolver:  Solving for Uy, Initial residual = 0.00225779, Final residual = 6.29374e-07, No Iterations 2
DICPCG:  Solving for p, Initial residual = 0.00459978, Final residual = 0.000220789, No Iterations 36
time step continuity errors : sum local = 2.74106e-09, global = 2.69915e-10, cumulative = 1.2636e-07
DICPCG:  Solving for p, Initial residual = 0.0015115, Final residual = 9.46505e-07, No Iterations 116
time step continuity errors : sum local = 1.17579e-11, global = 8.42396e-14, cumulative = 1.2636e-07
ExecutionTime = 11.28 s  ClockTime = 16 s

Time = 0.91

Courant Number mean: 0.0530186 max: 0.653995
smoothSolver:  Solving for Ux, Initial residual = 0.000352097, Final residual = 3.908e-06, No Iterations 1
smoothSolver:  Solving for Uy, Initial residual = 0.0022512, Final residual = 6.24564e-07, No Iterations 2
DICPCG:  Solving for p, Initial residual = 0.0045653, Final residual = 0.000216487, No Iterations 36
time step continuity errors : sum local = 2.69076e-09, global = 2.64899e-10, cumulative = 1.26625e-07
DICPCG:  Solving for p, Initial residual = 0.00149453, Final residual = 9.40124e-07, No Iterations 116
time step continuity errors : sum local = 1.1693e-11, global = 8.49408e-14, cumulative = 1.26625e-07
ExecutionTime = 11.37 s  ClockTime = 16 s

Time = 0.92

Courant Number mean: 0.0530204 max: 0.653541
smoothSolver:  Solving for Ux, Initial residual = 0.000350111, Final residual = 3.85983e-06, No Iterations 1
smoothSolver:  Solving for Uy, Initial residual = 0.00224439, Final residual = 6.19773e-07, No Iterations 2
DICPCG:  Solving for p, Initial residual = 0.00453024, Final residual = 0.000217107, No Iterations 36
time step continuity errors : sum local = 2.7018e-09, global = 2.58309e-10, cumulative = 1.26884e-07
DICPCG:  Solving for p, Initial residual = 0.00148441, Final residual = 9.34634e-07, No Iterations 116
time step continuity errors : sum local = 1.1639e-11, global = 8.62252e-14, cumulative = 1.26884e-07
ExecutionTime = 11.47 s  ClockTime = 16 s

Time = 0.93

Courant Number mean: 0.0530222 max: 0.653092
smoothSolver:  Solving for Ux, Initial residual = 0.000348153, Final residual = 3.81211e-06, No Iterations 1
smoothSolver:  Solving for Uy, Initial residual = 0.00223741, Final residual = 6.15083e-07, No Iterations 2
DICPCG:  Solving for p, Initial residual = 0.00449577, Final residual = 0.000212666, No Iterations 36
time step continuity errors : sum local = 2.64984e-09, global = 2.5312e-10, cumulative = 1.27137e-07
DICPCG:  Solving for p, Initial residual = 0.00146718, Final residual = 9.35243e-07, No Iterations 116
time step continuity errors : sum local = 1.16614e-11, global = 8.74823e-14, cumulative = 1.27137e-07
ExecutionTime = 11.56 s  ClockTime = 16 s

Time = 0.94

Courant Number mean: 0.053024 max: 0.652648
smoothSolver:  Solving for Ux, Initial residual = 0.000346244, Final residual = 3.76512e-06, No Iterations 1
smoothSolver:  Solving for Uy, Initial residual = 0.00223029, Final residual = 6.10433e-07, No Iterations 2
DICPCG:  Solving for p, Initial residual = 0.00446067, Final residual = 0.000213099, No Iterations 36
time step continuity errors : sum local = 2.6586e-09, global = 2.46453e-10, cumulative = 1.27383e-07
DICPCG:  Solving for p, Initial residual = 0.00145645, Final residual = 9.21172e-07, No Iterations 116
time step continuity errors : sum local = 1.15008e-11, global = 8.89965e-14, cumulative = 1.27384e-07
ExecutionTime = 11.65 s  ClockTime = 16 s

Time = 0.95

Courant Number mean: 0.0530258 max: 0.652209
smoothSolver:  Solving for Ux, Initial residual = 0.000344362, Final residual = 3.71911e-06, No Iterations 1
smoothSolver:  Solving for Uy, Initial residual = 0.00222301, Final residual = 6.05806e-07, No Iterations 2
DICPCG:  Solving for p, Initial residual = 0.00442563, Final residual = 0.000208675, No Iterations 36
time step continuity errors : sum local = 2.60671e-09, global = 2.41092e-10, cumulative = 1.27625e-07
DICPCG:  Solving for p, Initial residual = 0.00143904, Final residual = 9.2045e-07, No Iterations 116
time step continuity errors : sum local = 1.15061e-11, global = 8.96691e-14, cumulative = 1.27625e-07
ExecutionTime = 11.75 s  ClockTime = 17 s

Time = 0.96

Courant Number mean: 0.0530277 max: 0.651775
smoothSolver:  Solving for Ux, Initial residual = 0.000342508, Final residual = 3.67362e-06, No Iterations 1
smoothSolver:  Solving for Uy, Initial residual = 0.00221562, Final residual = 6.01237e-07, No Iterations 2
DICPCG:  Solving for p, Initial residual = 0.00439151, Final residual = 0.000208956, No Iterations 36
time step continuity errors : sum local = 2.61347e-09, global = 2.34345e-10, cumulative = 1.27859e-07
DICPCG:  Solving for p, Initial residual = 0.00142821, Final residual = 9.07991e-07, No Iterations 116
time step continuity errors : sum local = 1.13643e-11, global = 9.02522e-14, cumulative = 1.27859e-07
ExecutionTime = 11.84 s  ClockTime = 17 s

Time = 0.97

Courant Number mean: 0.0530296 max: 0.651344
smoothSolver:  Solving for Ux, Initial residual = 0.000340694, Final residual = 3.62875e-06, No Iterations 1
smoothSolver:  Solving for Uy, Initial residual = 0.00220815, Final residual = 5.9672e-07, No Iterations 2
DICPCG:  Solving for p, Initial residual = 0.00435646, Final residual = 0.000204574, No Iterations 36
time step continuity errors : sum local = 2.56188e-09, global = 2.28811e-10, cumulative = 1.28088e-07
DICPCG:  Solving for p, Initial residual = 0.00141118, Final residual = 8.92423e-07, No Iterations 116
time step continuity errors : sum local = 1.11839e-11, global = 9.02827e-14, cumulative = 1.28088e-07
ExecutionTime = 11.93 s  ClockTime = 17 s

Time = 0.98

Courant Number mean: 0.0530315 max: 0.650917
smoothSolver:  Solving for Ux, Initial residual = 0.00033891, Final residual = 3.58467e-06, No Iterations 1
smoothSolver:  Solving for Uy, Initial residual = 0.00220064, Final residual = 5.92247e-07, No Iterations 2
DICPCG:  Solving for p, Initial residual = 0.00431952, Final residual = 0.000204663, No Iterations 36
time step continuity errors : sum local = 2.56631e-09, global = 2.21987e-10, cumulative = 1.2831e-07
DICPCG:  Solving for p, Initial residual = 0.00139986, Final residual = 9.97881e-07, No Iterations 115
time step continuity errors : sum local = 1.25218e-11, global = 1.02478e-13, cumulative = 1.2831e-07
[...]
time step continuity errors : sum local = 5.25521e-10, global = 9.56744e-12, cumulative = 1.34149e-07
DICPCG:  Solving for p, Initial residual = 0.00014004, Final residual = 9.03554e-07, No Iterations 87
time step continuity errors : sum local = 1.17883e-11, global = -1.88655e-13, cumulative = 1.34149e-07
ExecutionTime = 61.52 s  ClockTime = 85 s

Time = 5.94

Courant Number mean: 0.0532695 max: 0.596618
smoothSolver:  Solving for Ux, Initial residual = 0.000116492, Final residual = 3.55145e-07, No Iterations 1
smoothSolver:  Solving for Uy, Initial residual = 0.000500955, Final residual = 2.01447e-06, No Iterations 1
DICPCG:  Solving for p, Initial residual = 0.000822035, Final residual = 4.01822e-05, No Iterations 24
time step continuity errors : sum local = 5.24291e-10, global = 9.53178e-12, cumulative = 1.34159e-07
DICPCG:  Solving for p, Initial residual = 0.000139718, Final residual = 9.00126e-07, No Iterations 87
time step continuity errors : sum local = 1.17471e-11, global = -1.86923e-13, cumulative = 1.34159e-07
ExecutionTime = 61.6 s  ClockTime = 86 s

Time = 5.95

Courant Number mean: 0.05327 max: 0.596585
smoothSolver:  Solving for Ux, Initial residual = 0.00011639, Final residual = 3.54669e-07, No Iterations 1
smoothSolver:  Solving for Uy, Initial residual = 0.000500279, Final residual = 2.00725e-06, No Iterations 1
DICPCG:  Solving for p, Initial residual = 0.000820501, Final residual = 4.00761e-05, No Iterations 24
time step continuity errors : sum local = 5.23067e-10, global = 9.49616e-12, cumulative = 1.34168e-07
DICPCG:  Solving for p, Initial residual = 0.000139398, Final residual = 8.96581e-07, No Iterations 87
time step continuity errors : sum local = 1.17044e-11, global = -1.85224e-13, cumulative = 1.34168e-07
ExecutionTime = 61.67 s  ClockTime = 86 s

Time = 5.96

Courant Number mean: 0.0532705 max: 0.596553
smoothSolver:  Solving for Ux, Initial residual = 0.000116286, Final residual = 3.54195e-07, No Iterations 1
smoothSolver:  Solving for Uy, Initial residual = 0.000499651, Final residual = 2.00004e-06, No Iterations 1
DICPCG:  Solving for p, Initial residual = 0.00081899, Final residual = 3.99707e-05, No Iterations 24
time step continuity errors : sum local = 5.21849e-10, global = 9.46061e-12, cumulative = 1.34177e-07
DICPCG:  Solving for p, Initial residual = 0.000139076, Final residual = 8.92913e-07, No Iterations 87
time step continuity errors : sum local = 1.166e-11, global = -1.8356e-13, cumulative = 1.34177e-07
ExecutionTime = 61.74 s  ClockTime = 86 s

Time = 5.97

Courant Number mean: 0.053271 max: 0.59652
smoothSolver:  Solving for Ux, Initial residual = 0.000116182, Final residual = 3.53723e-07, No Iterations 1
smoothSolver:  Solving for Uy, Initial residual = 0.000499074, Final residual = 1.99284e-06, No Iterations 1
DICPCG:  Solving for p, Initial residual = 0.000817471, Final residual = 3.98665e-05, No Iterations 24
time step continuity errors : sum local = 5.20642e-10, global = 9.4252e-12, cumulative = 1.34187e-07
DICPCG:  Solving for p, Initial residual = 0.000138753, Final residual = 8.89227e-07, No Iterations 87
time step continuity errors : sum local = 1.16153e-11, global = -1.81941e-13, cumulative = 1.34186e-07
ExecutionTime = 61.82 s  ClockTime = 86 s

Time = 5.98

Courant Number mean: 0.0532714 max: 0.596487
smoothSolver:  Solving for Ux, Initial residual = 0.000116078, Final residual = 3.53251e-07, No Iterations 1
smoothSolver:  Solving for Uy, Initial residual = 0.000498497, Final residual = 1.98566e-06, No Iterations 1
DICPCG:  Solving for p, Initial residual = 0.000815942, Final residual = 3.97629e-05, No Iterations 24
time step continuity errors : sum local = 5.19441e-10, global = 9.38994e-12, cumulative = 1.34196e-07
DICPCG:  Solving for p, Initial residual = 0.000138446, Final residual = 8.85541e-07, No Iterations 87
time step continuity errors : sum local = 1.15705e-11, global = -1.80377e-13, cumulative = 1.34196e-07
ExecutionTime = 61.89 s  ClockTime = 86 s

Time = 5.99

Courant Number mean: 0.0532719 max: 0.596454
smoothSolver:  Solving for Ux, Initial residual = 0.000115975, Final residual = 3.5278e-07, No Iterations 1
smoothSolver:  Solving for Uy, Initial residual = 0.000497903, Final residual = 1.97851e-06, No Iterations 1
DICPCG:  Solving for p, Initial residual = 0.000814411, Final residual = 3.96605e-05, No Iterations 24
time step continuity errors : sum local = 5.18252e-10, global = 9.35486e-12, cumulative = 1.34205e-07
DICPCG:  Solving for p, Initial residual = 0.000138141, Final residual = 8.82205e-07, No Iterations 87
time step continuity errors : sum local = 1.15302e-11, global = -1.789e-13, cumulative = 1.34205e-07
ExecutionTime = 61.96 s  ClockTime = 86 s

Time = 6

Courant Number mean: 0.0532724 max: 0.596421
smoothSolver:  Solving for Ux, Initial residual = 0.000115872, Final residual = 3.52308e-07, No Iterations 1
smoothSolver:  Solving for Uy, Initial residual = 0.000497294, Final residual = 1.9714e-06, No Iterations 1
DICPCG:  Solving for p, Initial residual = 0.000812873, Final residual = 3.95613e-05, No Iterations 24
time step continuity errors : sum local = 5.17103e-10, global = 9.32001e-12, cumulative = 1.34214e-07
DICPCG:  Solving for p, Initial residual = 0.000137849, Final residual = 8.78948e-07, No Iterations 87
time step continuity errors : sum local = 1.14909e-11, global = -1.77559e-13, cumulative = 1.34214e-07
ExecutionTime = 62.23 s  ClockTime = 86 s

Time = 6.01

Courant Number mean: 0.0532729 max: 0.596388
smoothSolver:  Solving for Ux, Initial residual = 0.00011577, Final residual = 3.51836e-07, No Iterations 1
smoothSolver:  Solving for Uy, Initial residual = 0.000496752, Final residual = 1.96431e-06, No Iterations 1
DICPCG:  Solving for p, Initial residual = 0.000811317, Final residual = 3.94645e-05, No Iterations 24
time step continuity errors : sum local = 5.15983e-10, global = 9.28545e-12, cumulative = 1.34223e-07
DICPCG:  Solving for p, Initial residual = 0.00013756, Final residual = 8.72726e-07, No Iterations 87
time step continuity errors : sum local = 1.14128e-11, global = -1.76253e-13, cumulative = 1.34223e-07
ExecutionTime = 62.32 s  ClockTime = 86 s

Time = 6.02

Courant Number mean: 0.0532733 max: 0.596356
smoothSolver:  Solving for Ux, Initial residual = 0.000115669, Final residual = 3.51365e-07, No Iterations 1
smoothSolver:  Solving for Uy, Initial residual = 0.000496197, Final residual = 1.9572e-06, No Iterations 1
DICPCG:  Solving for p, Initial residual = 0.000809777, Final residual = 3.93704e-05, No Iterations 24
time step continuity errors : sum local = 5.14896e-10, global = 9.25126e-12, cumulative = 1.34232e-07
DICPCG:  Solving for p, Initial residual = 0.000137272, Final residual = 8.67239e-07, No Iterations 87
time step continuity errors : sum local = 1.13441e-11, global = -1.74403e-13, cumulative = 1.34232e-07
ExecutionTime = 62.4 s  ClockTime = 86 s

Time = 6.03

Courant Number mean: 0.0532738 max: 0.596323
smoothSolver:  Solving for Ux, Initial residual = 0.000115567, Final residual = 3.50898e-07, No Iterations 1
smoothSolver:  Solving for Uy, Initial residual = 0.000495612, Final residual = 1.9501e-06, No Iterations 1
DICPCG:  Solving for p, Initial residual = 0.000808277, Final residual = 3.92757e-05, No Iterations 24
time step continuity errors : sum local = 5.13799e-10, global = 9.21691e-12, cumulative = 1.34241e-07
DICPCG:  Solving for p, Initial residual = 0.000136982, Final residual = 8.62931e-07, No Iterations 87
time step continuity errors : sum local = 1.12909e-11, global = -1.72758e-13, cumulative = 1.34241e-07
ExecutionTime = 62.48 s  ClockTime = 86 s

Time = 6.04

Courant Number mean: 0.0532743 max: 0.59629
smoothSolver:  Solving for Ux, Initial residual = 0.000115465, Final residual = 3.50432e-07, No Iterations 1
smoothSolver:  Solving for Uy, Initial residual = 0.000495015, Final residual = 1.94305e-06, No Iterations 1
DICPCG:  Solving for p, Initial residual = 0.000806779, Final residual = 3.91819e-05, No Iterations 24
time step continuity errors : sum local = 5.12712e-10, global = 9.18308e-12, cumulative = 1.3425e-07
DICPCG:  Solving for p, Initial residual = 0.000136689, Final residual = 8.63964e-07, No Iterations 87
time step continuity errors : sum local = 1.13075e-11, global = -1.70607e-13, cumulative = 1.3425e-07
ExecutionTime = 62.57 s  ClockTime = 87 s

Time = 6.05

Courant Number mean: 0.0532747 max: 0.596256
smoothSolver:  Solving for Ux, Initial residual = 0.000115364, Final residual = 3.49967e-07, No Iterations 1
smoothSolver:  Solving for Uy, Initial residual = 0.000494455, Final residual = 1.93606e-06, No Iterations 1
DICPCG:  Solving for p, Initial residual = 0.000805258, Final residual = 3.90876e-05, No Iterations 24
time step continuity errors : sum local = 5.11618e-10, global = 9.14926e-12, cumulative = 1.34259e-07
DICPCG:  Solving for p, Initial residual = 0.000136394, Final residual = 8.6112e-07, No Iterations 87
time step continuity errors : sum local = 1.12733e-11, global = -1.68961e-13, cumulative = 1.34259e-07
ExecutionTime = 62.64 s  ClockTime = 87 s

Time = 6.06

Courant Number mean: 0.0532752 max: 0.596223
smoothSolver:  Solving for Ux, Initial residual = 0.000115263, Final residual = 3.49503e-07, No Iterations 1
smoothSolver:  Solving for Uy, Initial residual = 0.000493959, Final residual = 1.92912e-06, No Iterations 1
DICPCG:  Solving for p, Initial residual = 0.000803724, Final residual = 3.89957e-05, No Iterations 24
time step continuity errors : sum local = 5.10553e-10, global = 9.11617e-12, cumulative = 1.34268e-07
DICPCG:  Solving for p, Initial residual = 0.000136099, Final residual = 8.58417e-07, No Iterations 87
time step continuity errors : sum local = 1.12409e-11, global = -1.67309e-13, cumulative = 1.34268e-07
ExecutionTime = 62.72 s  ClockTime = 87 s

Time = 6.07

Courant Number mean: 0.0532757 max: 0.59619
smoothSolver:  Solving for Ux, Initial residual = 0.000115161, Final residual = 3.4904e-07, No Iterations 1
smoothSolver:  Solving for Uy, Initial residual = 0.000493532, Final residual = 1.92227e-06, No Iterations 1
DICPCG:  Solving for p, Initial residual = 0.000802169, Final residual = 3.89033e-05, No Iterations 24
time step continuity errors : sum local = 5.09478e-10, global = 9.08319e-12, cumulative = 1.34277e-07
DICPCG:  Solving for p, Initial residual = 0.0001358, Final residual = 8.5541e-07, No Iterations 87
time step continuity errors : sum local = 1.12045e-11, global = -1.65861e-13, cumulative = 1.34277e-07
ExecutionTime = 62.8 s  ClockTime = 87 s

Time = 6.08

Courant Number mean: 0.0532761 max: 0.596157
smoothSolver:  Solving for Ux, Initial residual = 0.000115059, Final residual = 3.48577e-07, No Iterations 1
smoothSolver:  Solving for Uy, Initial residual = 0.000493104, Final residual = 1.9155e-06, No Iterations 1
DICPCG:  Solving for p, Initial residual = 0.000800735, Final residual = 3.88122e-05, No Iterations 24
time step continuity errors : sum local = 5.08416e-10, global = 9.05084e-12, cumulative = 1.34286e-07
DICPCG:  Solving for p, Initial residual = 0.000135502, Final residual = 8.52373e-07, No Iterations 87
time step continuity errors : sum local = 1.11676e-11, global = -1.64459e-13, cumulative = 1.34286e-07
ExecutionTime = 62.89 s  ClockTime = 87 s

Time = 6.09

Courant Number mean: 0.0532766 max: 0.596124
smoothSolver:  Solving for Ux, Initial residual = 0.000114957, Final residual = 3.48118e-07, No Iterations 1
smoothSolver:  Solving for Uy, Initial residual = 0.000492665, Final residual = 1.90882e-06, No Iterations 1
DICPCG:  Solving for p, Initial residual = 0.000799357, Final residual = 3.87215e-05, No Iterations 24
time step continuity errors : sum local = 5.07358e-10, global = 9.01891e-12, cumulative = 1.34295e-07
DICPCG:  Solving for p, Initial residual = 0.000135203, Final residual = 8.49201e-07, No Iterations 87
time step continuity errors : sum local = 1.11289e-11, global = -1.63086e-13, cumulative = 1.34295e-07
ExecutionTime = 62.97 s  ClockTime = 87 s

Time = 6.1

Courant Number mean: 0.0532771 max: 0.59609
smoothSolver:  Solving for Ux, Initial residual = 0.000114853, Final residual = 3.47661e-07, No Iterations 1
smoothSolver:  Solving for Uy, Initial residual = 0.000492209, Final residual = 1.90222e-06, No Iterations 1
DICPCG:  Solving for p, Initial residual = 0.000797949, Final residual = 3.86307e-05, No Iterations 24
time step continuity errors : sum local = 5.06302e-10, global = 8.98741e-12, cumulative = 1.34304e-07
DICPCG:  Solving for p, Initial residual = 0.000134903, Final residual = 8.4625e-07, No Iterations 87
time step continuity errors : sum local = 1.10932e-11, global = -1.61737e-13, cumulative = 1.34304e-07
ExecutionTime = 63.26 s  ClockTime = 87 s

Time = 6.11

Courant Number mean: 0.0532776 max: 0.596057
smoothSolver:  Solving for Ux, Initial residual = 0.00011475, Final residual = 3.47205e-07, No Iterations 1
smoothSolver:  Solving for Uy, Initial residual = 0.000491751, Final residual = 1.89572e-06, No Iterations 1
DICPCG:  Solving for p, Initial residual = 0.000796513, Final residual = 3.854e-05, No Iterations 24
time step continuity errors : sum local = 5.05248e-10, global = 8.95636e-12, cumulative = 1.34313e-07
DICPCG:  Solving for p, Initial residual = 0.000134601, Final residual = 8.43294e-07, No Iterations 87
time step continuity errors : sum local = 1.10574e-11, global = -1.60412e-13, cumulative = 1.34312e-07
ExecutionTime = 63.33 s  ClockTime = 87 s

Time = 6.12

Courant Number mean: 0.0532781 max: 0.596024
smoothSolver:  Solving for Ux, Initial residual = 0.000114646, Final residual = 3.46755e-07, No Iterations 1
smoothSolver:  Solving for Uy, Initial residual = 0.000491331, Final residual = 1.88932e-06, No Iterations 1
DICPCG:  Solving for p, Initial residual = 0.000795061, Final residual = 3.84497e-05, No Iterations 24
time step continuity errors : sum local = 5.04196e-10, global = 8.92579e-12, cumulative = 1.34321e-07
DICPCG:  Solving for p, Initial residual = 0.000134313, Final residual = 8.40277e-07, No Iterations 87
time step continuity errors : sum local = 1.10207e-11, global = -1.59111e-13, cumulative = 1.34321e-07
ExecutionTime = 63.41 s  ClockTime = 87 s

Time = 6.13

Courant Number mean: 0.0532786 max: 0.59599
smoothSolver:  Solving for Ux, Initial residual = 0.000114543, Final residual = 3.46308e-07, No Iterations 1
smoothSolver:  Solving for Uy, Initial residual = 0.000490896, Final residual = 1.88302e-06, No Iterations 1
DICPCG:  Solving for p, Initial residual = 0.000793606, Final residual = 3.83596e-05, No Iterations 24
time step continuity errors : sum local = 5.03144e-10, global = 8.89572e-12, cumulative = 1.3433e-07
DICPCG:  Solving for p, Initial residual = 0.000134026, Final residual = 9.98467e-07, No Iterations 86
time step continuity errors : sum local = 1.30988e-11, global = -1.06608e-13, cumulative = 1.3433e-07
ExecutionTime = 63.49 s  ClockTime = 88 s

Time = 6.14

Courant Number mean: 0.0532791 max: 0.595957
smoothSolver:  Solving for Ux, Initial residual = 0.00011444, Final residual = 3.45873e-07, No Iterations 1
smoothSolver:  Solving for Uy, Initial residual = 0.000490443, Final residual = 1.87684e-06, No Iterations 1
DICPCG:  Solving for p, Initial residual = 0.000792293, Final residual = 3.827e-05, No Iterations 24
time step continuity errors : sum local = 5.02099e-10, global = 8.84845e-12, cumulative = 1.34339e-07
DICPCG:  Solving for p, Initial residual = 0.000133739, Final residual = 9.94466e-07, No Iterations 86
time step continuity errors : sum local = 1.30497e-11, global = -1.05328e-13, cumulative = 1.34339e-07
ExecutionTime = 63.57 s  ClockTime = 88 s

Time = 6.15

Courant Number mean: 0.0532796 max: 0.595923
smoothSolver:  Solving for Ux, Initial residual = 0.000114338, Final residual = 3.45449e-07, No Iterations 1
smoothSolver:  Solving for Uy, Initial residual = 0.000489971, Final residual = 1.87077e-06, No Iterations 1
DICPCG:  Solving for p, Initial residual = 0.000790673, Final residual = 3.81778e-05, No Iterations 24
time step continuity errors : sum local = 5.0102e-10, global = 8.82812e-12, cumulative = 1.34348e-07
DICPCG:  Solving for p, Initial residual = 0.000133468, Final residual = 9.89958e-07, No Iterations 86
time step continuity errors : sum local = 1.29939e-11, global = -1.03871e-13, cumulative = 1.34347e-07
ExecutionTime = 63.65 s  ClockTime = 88 s

Time = 6.16

Courant Number mean: 0.0532801 max: 0.595889
smoothSolver:  Solving for Ux, Initial residual = 0.000114236, Final residual = 3.45034e-07, No Iterations 1
smoothSolver:  Solving for Uy, Initial residual = 0.000489562, Final residual = 1.8648e-06, No Iterations 1
DICPCG:  Solving for p, Initial residual = 0.00078916, Final residual = 3.80886e-05, No Iterations 24
time step continuity errors : sum local = 4.99978e-10, global = 8.79956e-12, cumulative = 1.34356e-07
DICPCG:  Solving for p, Initial residual = 0.000133201, Final residual = 9.85499e-07, No Iterations 86
time step continuity errors : sum local = 1.29387e-11, global = -1.02578e-13, cumulative = 1.34356e-07
ExecutionTime = 63.73 s  ClockTime = 88 s

Time = 6.17

Courant Number mean: 0.0532806 max: 0.595856
smoothSolver:  Solving for Ux, Initial residual = 0.000114134, Final residual = 3.4462e-07, No Iterations 1
smoothSolver:  Solving for Uy, Initial residual = 0.000489185, Final residual = 1.85893e-06, No Iterations 1
DICPCG:  Solving for p, Initial residual = 0.000787625, Final residual = 3.79986e-05, No Iterations 24
time step continuity errors : sum local = 4.98924e-10, global = 8.77167e-12, cumulative = 1.34365e-07
DICPCG:  Solving for p, Initial residual = 0.000132939, Final residual = 9.81116e-07, No Iterations 86
time step continuity errors : sum local = 1.28844e-11, global = -1.01327e-13, cumulative = 1.34365e-07
ExecutionTime = 63.81 s  ClockTime = 88 s

Time = 6.18

Courant Number mean: 0.0532811 max: 0.595822
smoothSolver:  Solving for Ux, Initial residual = 0.000114033, Final residual = 3.44208e-07, No Iterations 1
smoothSolver:  Solving for Uy, Initial residual = 0.000488855, Final residual = 1.85317e-06, No Iterations 1
DICPCG:  Solving for p, Initial residual = 0.000786067, Final residual = 3.79111e-05, No Iterations 24
time step continuity errors : sum local = 4.97898e-10, global = 8.74442e-12, cumulative = 1.34374e-07
DICPCG:  Solving for p, Initial residual = 0.000132684, Final residual = 9.76735e-07, No Iterations 86
time step continuity errors : sum local = 1.283e-11, global = -1.0012e-13, cumulative = 1.34373e-07
ExecutionTime = 63.88 s  ClockTime = 88 s

Time = 6.19

Courant Number mean: 0.0532816 max: 0.595788
smoothSolver:  Solving for Ux, Initial residual = 0.000113931, Final residual = 3.43797e-07, No Iterations 1
smoothSolver:  Solving for Uy, Initial residual = 0.000488542, Final residual = 1.8475e-06, No Iterations 1
DICPCG:  Solving for p, Initial residual = 0.000784488, Final residual = 3.7824e-05, No Iterations 24
time step continuity errors : sum local = 4.96876e-10, global = 8.71772e-12, cumulative = 1.34382e-07
DICPCG:  Solving for p, Initial residual = 0.000132429, Final residual = 9.72442e-07, No Iterations 86
time step continuity errors : sum local = 1.27767e-11, global = -9.89579e-14, cumulative = 1.34382e-07
ExecutionTime = 63.96 s  ClockTime = 88 s

Time = 6.2

Courant Number mean: 0.0532822 max: 0.595755
smoothSolver:  Solving for Ux, Initial residual = 0.000113829, Final residual = 3.43385e-07, No Iterations 1
smoothSolver:  Solving for Uy, Initial residual = 0.000488258, Final residual = 1.84194e-06, No Iterations 1
DICPCG:  Solving for p, Initial residual = 0.000782892, Final residual = 3.77373e-05, No Iterations 24
time step continuity errors : sum local = 4.95856e-10, global = 8.69161e-12, cumulative = 1.34391e-07
DICPCG:  Solving for p, Initial residual = 0.000132172, Final residual = 9.68158e-07, No Iterations 86
time step continuity errors : sum local = 1.27234e-11, global = -9.78411e-14, cumulative = 1.34391e-07
