/work/05129/mars2020/stampede2/cfd/my_openfoam_2/openFoam2
Mon Apr  1 20:12:34 CDT 2019
/*---------------------------------------------------------------------------*\
  =========                 |
  \\      /  F ield         | OpenFOAM: The Open Source CFD Toolbox
   \\    /   O peration     | Website:  https://openfoam.org
    \\  /    A nd           | Version:  6.0
     \\/     M anipulation  |
\*---------------------------------------------------------------------------*/
Build  : 6.0
Exec   : blockMesh
Date   : Apr 01 2019
Time   : 20:12:37
Host   : "c474-101.stampede2.tacc.utexas.edu"
PID    : 199866
I/O    : uncollated
Case   : /work/05129/mars2020/stampede2/cfd/my_openfoam_2/openFoam2
nProcs : 1
sigFpe : Enabling floating point exception trapping (FOAM_SIGFPE).
fileModificationChecking : Monitoring run-time modified files using timeStampMaster (fileModificationSkew 10)
allowSystemOperations : Allowing user-supplied system call operations

// * * * * * * * * * * * * * * * * * * * * * * * * * * * * * * * * * * * * * //
Create time

Deleting polyMesh directory
    "/work/05129/mars2020/stampede2/cfd/my_openfoam_2/openFoam2/constant/polyMesh"
Creating block mesh from
    "/work/05129/mars2020/stampede2/cfd/my_openfoam_2/openFoam2/system/blockMeshDict"
Creating block edges
No non-planar block faces defined
Creating topology blocks
Creating topology patches

Creating block mesh topology
--> FOAM Warning : 
    From function Foam::polyMesh::polyMesh(const Foam::IOobject &, const Foam::Xfer<Foam::Field<Foam::Vector<double>>> &, const Foam::List<Foam::cellShape> &, const Foam::List<Foam::List<Foam::face>> &, const Foam::List<Foam::word> &, const Foam::PtrList<Foam::dictionary> &, const Foam::word &, const Foam::word &, bool)
    in file meshes/polyMesh/polyMeshFromShapeMesh.C at line 871
    Found 40 undefined faces in mesh; adding to default patch.

Check topology

	Basic statistics
		Number of internal faces : 28
		Number of boundary faces : 64
		Number of defined boundary faces : 64
		Number of undefined boundary faces : 0
	Checking patch -> block consistency

Creating block offsets
Creating merge list .

Creating polyMesh from blockMesh
Creating points with scale 1
    Block 0 cell size :
        i : 0.025 .. 0.025
        j : 0.0196337 .. 0.0196337
        k : 0.1 .. 0.1

    Block 1 cell size :
        i : 0.025 .. 0.025
        j : 0.0196337 .. 0.0196337
        k : 0.1 .. 0.1

    Block 2 cell size :
        i : 0.025 .. 0.025
        j : 0.0196337 .. 0.0196337
        k : 0.1 .. 0.1

    Block 3 cell size :
        i : 0.025 .. 0.025
        j : 0.0196337 .. 0.0196337
        k : 0.1 .. 0.1

    Block 4 cell size :
        i : 0.025 .. 0.025
        j : 0.0196337 .. 0.0196337
        k : 0.1 .. 0.1

    Block 5 cell size :
        i : 0.025 .. 0.025
        j : 0.0196337 .. 0.0196337
        k : 0.1 .. 0.1

    Block 6 cell size :
        i : 0.025 .. 0.025
        j : 0.0196337 .. 0.0196337
        k : 0.1 .. 0.1

    Block 7 cell size :
        i : 0.025 .. 0.025
        j : 0.0196337 .. 0.0196337
        k : 0.1 .. 0.1

    Block 8 cell size :
        i : 0.55 .. 0.55
        j : 0.0392674 .. 0.0392674
        k : 0.1 .. 0.1

    Block 9 cell size :
        i : 0.564645 .. 0.564645
        j : 0.364645 .. 0.364645
        k : 0.1 .. 0.1

    Block 10 cell size :
        i : 0.0392674 .. 0.0392674
        j : 0.35 .. 0.35
        k : 0.1 .. 0.1

    Block 11 cell size :
        i : 0.0392674 .. 0.0392674
        j : 0.364645 .. 0.364645
        k : 0.1 .. 0.1

    Block 12 cell size :
        i : 0.164645 .. 0.164645
        j : 0.364645 .. 0.364645
        k : 0.1 .. 0.1

    Block 13 cell size :
        i : 0.15 .. 0.15
        j : 0.0353554 .. 0.0353554
        k : 0.1 .. 0.1

    Block 14 cell size :
        i : 0.164645 .. 0.164645
        j : 0.0353554 .. 0.0353554
        k : 0.1 .. 0.1

    Block 15 cell size :
        i : 0.164645 .. 0.164645
        j : 0.364645 .. 0.364645
        k : 0.1 .. 0.1

    Block 16 cell size :
        i : 0.0353554 .. 0.0353554
        j : 0.364645 .. 0.364645
        k : 0.1 .. 0.1

    Block 17 cell size :
        i : 0.0353554 .. 0.0353554
        j : 0.35 .. 0.35
        k : 0.1 .. 0.1

    Block 18 cell size :
        i : 0.564645 .. 0.564645
        j : 0.364645 .. 0.364645
        k : 0.1 .. 0.1

    Block 19 cell size :
        i : 0.564645 .. 0.564645
        j : 0.0392674 .. 0.0392674
        k : 0.1 .. 0.1

Creating cells
Creating patches

Writing polyMesh
----------------
Mesh Information
----------------
  boundingBox: (-4 -8 -0.05) (12 8 0.05)
  nPoints: 16480
  nCells: 8000
  nFaces: 32240
  nInternalFaces: 15760
----------------
Patches
----------------
  patch 0 (start: 15760 size: 80) name: inlet
  patch 1 (start: 15840 size: 80) name: outlet
  patch 2 (start: 15920 size: 160) name: cylinder
  patch 3 (start: 16080 size: 80) name: top
  patch 4 (start: 16160 size: 80) name: bottom
  patch 5 (start: 16240 size: 16000) name: defaultFaces

End

/*---------------------------------------------------------------------------*\
  =========                 |
  \\      /  F ield         | OpenFOAM: The Open Source CFD Toolbox
   \\    /   O peration     | Website:  https://openfoam.org
    \\  /    A nd           | Version:  6.0
     \\/     M anipulation  |
\*---------------------------------------------------------------------------*/
Build  : 6.0
Exec   : checkMesh
Date   : Apr 01 2019
Time   : 20:12:39
Host   : "c474-101.stampede2.tacc.utexas.edu"
PID    : 199875
I/O    : uncollated
Case   : /work/05129/mars2020/stampede2/cfd/my_openfoam_2/openFoam2
nProcs : 1
sigFpe : Enabling floating point exception trapping (FOAM_SIGFPE).
fileModificationChecking : Monitoring run-time modified files using timeStampMaster (fileModificationSkew 10)
allowSystemOperations : Allowing user-supplied system call operations

// * * * * * * * * * * * * * * * * * * * * * * * * * * * * * * * * * * * * * //
Create time

Create polyMesh for time = 0

Time = 0

Mesh stats
    points:           16480
    internal points:  0
    faces:            32240
    internal faces:   15760
    cells:            8000
    faces per cell:   6
    boundary patches: 6
    point zones:      0
    face zones:       0
    cell zones:       0

Overall number of cells of each type:
    hexahedra:     8000
    prisms:        0
    wedges:        0
    pyramids:      0
    tet wedges:    0
    tetrahedra:    0
    polyhedra:     0

Checking topology...
    Boundary definition OK.
    Cell to face addressing OK.
    Point usage OK.
    Upper triangular ordering OK.
    Face vertices OK.
    Number of regions: 1 (OK).

Checking patch topology for multiply connected surfaces...
    Patch               Faces    Points   Surface topology                  
    inlet               80       162      ok (non-closed singly connected)  
    outlet              80       162      ok (non-closed singly connected)  
    cylinder            160      320      ok (non-closed singly connected)  
    top                 80       162      ok (non-closed singly connected)  
    bottom              80       162      ok (non-closed singly connected)  
    defaultFaces        16000    16480    ok (non-closed singly connected)  

Checking geometry...
    Overall domain bounding box (-4 -8 -0.05) (12 8 0.05)
    Mesh has 2 geometric (non-empty/wedge) directions (1 1 0)
    Mesh has 2 solution (non-empty) directions (1 1 0)
    All edges aligned with or perpendicular to non-empty directions.
    Boundary openness (-2.01266e-20 -1.87848e-19 -1.4363e-16) OK.
    Max cell openness = 2.03105e-16 OK.
    Max aspect ratio = 20.6047 OK.
    Minimum face area = 0.000503016. Maximum face area = 0.205895.  Face area magnitudes OK.
    Min volume = 5.03016e-05. Max volume = 0.0205895.  Total volume = 25.5215.  Cell volumes OK.
    Mesh non-orthogonality Max: 42.1963 average: 9.79724
    Non-orthogonality check OK.
    Face pyramids OK.
    Max skewness = 0.5043 OK.
    Coupled point location match (average 0) OK.

Mesh OK.

End

/*---------------------------------------------------------------------------*\
  =========                 |
  \\      /  F ield         | OpenFOAM: The Open Source CFD Toolbox
   \\    /   O peration     | Website:  https://openfoam.org
    \\  /    A nd           | Version:  6.0
     \\/     M anipulation  |
\*---------------------------------------------------------------------------*/
Build  : 6.0
Exec   : icoFoam
Date   : Apr 01 2019
Time   : 20:13:13
Host   : "c474-101.stampede2.tacc.utexas.edu"
PID    : 200970
I/O    : uncollated
Case   : /work/05129/mars2020/stampede2/cfd/my_openfoam_2/openFoam2
nProcs : 1
sigFpe : Enabling floating point exception trapping (FOAM_SIGFPE).
fileModificationChecking : Monitoring run-time modified files using timeStampMaster (fileModificationSkew 10)
allowSystemOperations : Allowing user-supplied system call operations

// * * * * * * * * * * * * * * * * * * * * * * * * * * * * * * * * * * * * * //
Create time

Create mesh for time = 0

Reading transportProperties

Reading field p

Reading field U

Reading/calculating face flux field phi


Starting time loop

Reading set description:
    simple_line

Time = 0.01

Courant Number mean: 0.0521587 max: 0.620055
smoothSolver:  Solving for Ux, Initial residual = 1, Final residual = 3.85741e-06, No Iterations 4
smoothSolver:  Solving for Uy, Initial residual = 0, Final residual = 0, No Iterations 0
DICPCG:  Solving for p, Initial residual = 1, Final residual = 0.0453506, No Iterations 81
time step continuity errors : sum local = 3.671e-06, global = 4.41257e-08, cumulative = 4.41257e-08
DICPCG:  Solving for p, Initial residual = 0.138852, Final residual = 9.4784e-07, No Iterations 149
time step continuity errors : sum local = 4.03635e-10, global = 1.62653e-12, cumulative = 4.41273e-08
ExecutionTime = 1.26 s  ClockTime = 1 s

Time = 0.02

Courant Number mean: 0.0531085 max: 0.862411
smoothSolver:  Solving for Ux, Initial residual = 0.301248, Final residual = 3.46341e-06, No Iterations 3
smoothSolver:  Solving for Uy, Initial residual = 0.332197, Final residual = 2.67499e-06, No Iterations 3
DICPCG:  Solving for p, Initial residual = 0.240637, Final residual = 0.0109957, No Iterations 83
time step continuity errors : sum local = 4.19855e-06, global = -5.50068e-08, cumulative = -1.08795e-08
DICPCG:  Solving for p, Initial residual = 0.54364, Final residual = 8.71361e-07, No Iterations 157
time step continuity errors : sum local = 9.36971e-11, global = 1.9999e-12, cumulative = -1.08775e-08
ExecutionTime = 1.4 s  ClockTime = 1 s

Time = 0.03

Courant Number mean: 0.0531092 max: 0.854578
smoothSolver:  Solving for Ux, Initial residual = 0.00803987, Final residual = 6.26329e-06, No Iterations 2
smoothSolver:  Solving for Uy, Initial residual = 0.00718554, Final residual = 2.52362e-06, No Iterations 2
DICPCG:  Solving for p, Initial residual = 0.172726, Final residual = 0.00718849, No Iterations 70
time step continuity errors : sum local = 2.29308e-07, global = -1.85382e-09, cumulative = -1.27313e-08
DICPCG:  Solving for p, Initial residual = 0.0333256, Final residual = 8.28967e-07, No Iterations 138
time step continuity errors : sum local = 3.01339e-11, global = 6.95909e-15, cumulative = -1.27313e-08
ExecutionTime = 1.52 s  ClockTime = 2 s

Time = 0.04

Courant Number mean: 0.0530987 max: 0.823302
smoothSolver:  Solving for Ux, Initial residual = 0.0100047, Final residual = 4.05616e-06, No Iterations 2
smoothSolver:  Solving for Uy, Initial residual = 0.0135048, Final residual = 2.25637e-06, No Iterations 2
DICPCG:  Solving for p, Initial residual = 0.0915451, Final residual = 0.00430882, No Iterations 25
time step continuity errors : sum local = 1.43481e-07, global = 2.11504e-08, cumulative = 8.41906e-09
DICPCG:  Solving for p, Initial residual = 0.0224716, Final residual = 9.22076e-07, No Iterations 137
time step continuity errors : sum local = 2.89048e-11, global = 2.03524e-13, cumulative = 8.41927e-09
ExecutionTime = 1.62 s  ClockTime = 2 s

Time = 0.05

Courant Number mean: 0.0530902 max: 0.816355
smoothSolver:  Solving for Ux, Initial residual = 0.00711461, Final residual = 2.73132e-06, No Iterations 2
smoothSolver:  Solving for Uy, Initial residual = 0.0114259, Final residual = 1.99131e-06, No Iterations 2
DICPCG:  Solving for p, Initial residual = 0.0762323, Final residual = 0.0034514, No Iterations 26
time step continuity errors : sum local = 9.92475e-08, global = 1.64927e-08, cumulative = 2.4912e-08
DICPCG:  Solving for p, Initial residual = 0.0184672, Final residual = 9.54413e-07, No Iterations 135
time step continuity errors : sum local = 2.62234e-11, global = 4.15521e-13, cumulative = 2.49124e-08
ExecutionTime = 1.73 s  ClockTime = 2 s

Time = 0.06

Courant Number mean: 0.0530829 max: 0.808009
smoothSolver:  Solving for Ux, Initial residual = 0.0054209, Final residual = 2.0508e-06, No Iterations 2
smoothSolver:  Solving for Uy, Initial residual = 0.00987796, Final residual = 1.82069e-06, No Iterations 2
DICPCG:  Solving for p, Initial residual = 0.0659749, Final residual = 0.00327381, No Iterations 25
time step continuity errors : sum local = 8.3886e-08, global = 1.29167e-08, cumulative = 3.78291e-08
DICPCG:  Solving for p, Initial residual = 0.0164094, Final residual = 8.26325e-07, No Iterations 134
time step continuity errors : sum local = 2.04153e-11, global = 2.45042e-13, cumulative = 3.78293e-08
ExecutionTime = 1.83 s  ClockTime = 2 s

Time = 0.07

Courant Number mean: 0.0530767 max: 0.798094
smoothSolver:  Solving for Ux, Initial residual = 0.00430925, Final residual = 1.63692e-06, No Iterations 2
smoothSolver:  Solving for Uy, Initial residual = 0.00865954, Final residual = 1.68796e-06, No Iterations 2
DICPCG:  Solving for p, Initial residual = 0.0578639, Final residual = 0.002612, No Iterations 26
time step continuity errors : sum local = 6.0689e-08, global = 1.11935e-08, cumulative = 4.90228e-08
DICPCG:  Solving for p, Initial residual = 0.0143331, Final residual = 9.29315e-07, No Iterations 128
time step continuity errors : sum local = 2.09199e-11, global = 4.97615e-14, cumulative = 4.90228e-08
ExecutionTime = 1.93 s  ClockTime = 2 s

Time = 0.08

Courant Number mean: 0.0530711 max: 0.787449
smoothSolver:  Solving for Ux, Initial residual = 0.00353963, Final residual = 1.37353e-06, No Iterations 2
smoothSolver:  Solving for Uy, Initial residual = 0.00766822, Final residual = 1.57675e-06, No Iterations 2
DICPCG:  Solving for p, Initial residual = 0.0515462, Final residual = 0.00226543, No Iterations 26
time step continuity errors : sum local = 4.83001e-08, global = 9.24111e-09, cumulative = 5.82639e-08
DICPCG:  Solving for p, Initial residual = 0.0130182, Final residual = 8.84971e-07, No Iterations 127
time step continuity errors : sum local = 1.83504e-11, global = 3.90456e-13, cumulative = 5.82643e-08
ExecutionTime = 2.03 s  ClockTime = 2 s

Time = 0.09

Courant Number mean: 0.0530661 max: 0.776144
smoothSolver:  Solving for Ux, Initial residual = 0.00298469, Final residual = 1.18796e-06, No Iterations 2
smoothSolver:  Solving for Uy, Initial residual = 0.0068469, Final residual = 1.48493e-06, No Iterations 2
DICPCG:  Solving for p, Initial residual = 0.047141, Final residual = 0.00205859, No Iterations 26
time step continuity errors : sum local = 4.06624e-08, global = 7.68799e-09, cumulative = 6.59523e-08
DICPCG:  Solving for p, Initial residual = 0.012073, Final residual = 9.25019e-07, No Iterations 125
time step continuity errors : sum local = 1.78283e-11, global = 1.449e-13, cumulative = 6.59525e-08
ExecutionTime = 2.13 s  ClockTime = 2 s

Time = 0.1

Courant Number mean: 0.0530616 max: 0.767603
smoothSolver:  Solving for Ux, Initial residual = 0.00256737, Final residual = 1.0416e-06, No Iterations 2
smoothSolver:  Solving for Uy, Initial residual = 0.00616674, Final residual = 1.40911e-06, No Iterations 2
DICPCG:  Solving for p, Initial residual = 0.0436822, Final residual = 0.00218351, No Iterations 25
time step continuity errors : sum local = 4.02768e-08, global = 6.08895e-09, cumulative = 7.20414e-08
DICPCG:  Solving for p, Initial residual = 0.0115209, Final residual = 9.88336e-07, No Iterations 114
time step continuity errors : sum local = 1.78274e-11, global = 1.89213e-13, cumulative = 7.20416e-08
ExecutionTime = 2.22 s  ClockTime = 2 s

Time = 0.11

Courant Number mean: 0.0530573 max: 0.763948
smoothSolver:  Solving for Ux, Initial residual = 0.0022448, Final residual = 9.25616e-07, No Iterations 2
smoothSolver:  Solving for Uy, Initial residual = 0.00562088, Final residual = 1.34704e-06, No Iterations 2
DICPCG:  Solving for p, Initial residual = 0.0410018, Final residual = 0.00200259, No Iterations 25
time step continuity errors : sum local = 3.46965e-08, global = 5.11462e-09, cumulative = 7.71562e-08
DICPCG:  Solving for p, Initial residual = 0.0107945, Final residual = 9.59247e-07, No Iterations 114
time step continuity errors : sum local = 1.62746e-11, global = 9.8332e-14, cumulative = 7.71563e-08
ExecutionTime = 2.31 s  ClockTime = 3 s

Time = 0.12

Courant Number mean: 0.0530534 max: 0.76003
smoothSolver:  Solving for Ux, Initial residual = 0.00199104, Final residual = 8.34954e-07, No Iterations 2
smoothSolver:  Solving for Uy, Initial residual = 0.00516674, Final residual = 1.29359e-06, No Iterations 2
DICPCG:  Solving for p, Initial residual = 0.0382166, Final residual = 0.001775, No Iterations 25
time step continuity errors : sum local = 2.95171e-08, global = 4.34939e-09, cumulative = 8.15057e-08
DICPCG:  Solving for p, Initial residual = 0.0100069, Final residual = 9.08092e-07, No Iterations 113
time step continuity errors : sum local = 1.48181e-11, global = 8.20066e-14, cumulative = 8.15058e-08
ExecutionTime = 2.41 s  ClockTime = 3 s

Time = 0.13

Courant Number mean: 0.0530497 max: 0.755721
smoothSolver:  Solving for Ux, Initial residual = 0.0017871, Final residual = 7.61333e-07, No Iterations 2
smoothSolver:  Solving for Uy, Initial residual = 0.00478292, Final residual = 1.2486e-06, No Iterations 2
DICPCG:  Solving for p, Initial residual = 0.035182, Final residual = 0.00159543, No Iterations 25
time step continuity errors : sum local = 2.59838e-08, global = 3.70436e-09, cumulative = 8.52102e-08
DICPCG:  Solving for p, Initial residual = 0.0091894, Final residual = 9.4371e-07, No Iterations 112
time step continuity errors : sum local = 1.51028e-11, global = 8.43766e-14, cumulative = 8.52102e-08
ExecutionTime = 2.5 s  ClockTime = 3 s

Time = 0.14

Courant Number mean: 0.0530462 max: 0.751089
smoothSolver:  Solving for Ux, Initial residual = 0.00162055, Final residual = 7.00401e-07, No Iterations 2
smoothSolver:  Solving for Uy, Initial residual = 0.00446433, Final residual = 1.21141e-06, No Iterations 2
DICPCG:  Solving for p, Initial residual = 0.032542, Final residual = 0.00140434, No Iterations 25
time step continuity errors : sum local = 2.24175e-08, global = 3.17974e-09, cumulative = 8.839e-08
DICPCG:  Solving for p, Initial residual = 0.00844526, Final residual = 9.42657e-07, No Iterations 111
time step continuity errors : sum local = 1.48091e-11, global = 1.65033e-13, cumulative = 8.83901e-08
ExecutionTime = 2.59 s  ClockTime = 3 s

Time = 0.15

Courant Number mean: 0.0530429 max: 0.746211
smoothSolver:  Solving for Ux, Initial residual = 0.0014819, Final residual = 6.49261e-07, No Iterations 2
smoothSolver:  Solving for Uy, Initial residual = 0.00419565, Final residual = 1.17875e-06, No Iterations 2
DICPCG:  Solving for p, Initial residual = 0.0302666, Final residual = 0.00150034, No Iterations 24
time step continuity errors : sum local = 2.35003e-08, global = 2.50478e-09, cumulative = 9.08949e-08
DICPCG:  Solving for p, Initial residual = 0.00800077, Final residual = 9.1517e-07, No Iterations 112
time step continuity errors : sum local = 1.41228e-11, global = 2.6571e-13, cumulative = 9.08952e-08
ExecutionTime = 2.68 s  ClockTime = 3 s

Time = 0.16

Courant Number mean: 0.0530398 max: 0.741316
smoothSolver:  Solving for Ux, Initial residual = 0.00136518, Final residual = 6.05644e-07, No Iterations 2
smoothSolver:  Solving for Uy, Initial residual = 0.00397751, Final residual = 1.14976e-06, No Iterations 2
DICPCG:  Solving for p, Initial residual = 0.0282977, Final residual = 0.00136914, No Iterations 24
time step continuity errors : sum local = 2.10613e-08, global = 2.14914e-09, cumulative = 9.30443e-08
DICPCG:  Solving for p, Initial residual = 0.00749364, Final residual = 9.25796e-07, No Iterations 112
time step continuity errors : sum local = 1.40466e-11, global = 3.47488e-13, cumulative = 9.30447e-08
ExecutionTime = 2.77 s  ClockTime = 3 s

Time = 0.17

Courant Number mean: 0.0530368 max: 0.736429
smoothSolver:  Solving for Ux, Initial residual = 0.00126624, Final residual = 5.6833e-07, No Iterations 2
smoothSolver:  Solving for Uy, Initial residual = 0.00379366, Final residual = 1.12365e-06, No Iterations 2
DICPCG:  Solving for p, Initial residual = 0.0267086, Final residual = 0.00125349, No Iterations 24
time step continuity errors : sum local = 1.89487e-08, global = 1.8503e-09, cumulative = 9.4895e-08
DICPCG:  Solving for p, Initial residual = 0.00705997, Final residual = 9.0304e-07, No Iterations 112
time step continuity errors : sum local = 1.34728e-11, global = 3.14077e-13, cumulative = 9.48953e-08
ExecutionTime = 2.86 s  ClockTime = 3 s

Time = 0.18

Courant Number mean: 0.0530339 max: 0.731472
smoothSolver:  Solving for Ux, Initial residual = 0.00118182, Final residual = 5.36259e-07, No Iterations 2
smoothSolver:  Solving for Uy, Initial residual = 0.00363604, Final residual = 1.10166e-06, No Iterations 2
DICPCG:  Solving for p, Initial residual = 0.0253109, Final residual = 0.00115, No Iterations 24
time step continuity errors : sum local = 1.70902e-08, global = 1.60136e-09, cumulative = 9.64966e-08
DICPCG:  Solving for p, Initial residual = 0.00668594, Final residual = 9.28353e-07, No Iterations 112
time step continuity errors : sum local = 1.36257e-11, global = 2.69652e-13, cumulative = 9.64969e-08
ExecutionTime = 2.96 s  ClockTime = 3 s

Time = 0.19

Courant Number mean: 0.0530311 max: 0.726483
smoothSolver:  Solving for Ux, Initial residual = 0.00110865, Final residual = 5.08614e-07, No Iterations 2
smoothSolver:  Solving for Uy, Initial residual = 0.00350396, Final residual = 1.08252e-06, No Iterations 2
DICPCG:  Solving for p, Initial residual = 0.0240537, Final residual = 0.00105767, No Iterations 24
time step continuity errors : sum local = 1.5461e-08, global = 1.38217e-09, cumulative = 9.78791e-08
DICPCG:  Solving for p, Initial residual = 0.00633958, Final residual = 9.13547e-07, No Iterations 113
time step continuity errors : sum local = 1.3195e-11, global = 2.09426e-13, cumulative = 9.78793e-08
ExecutionTime = 3.05 s  ClockTime = 3 s

Time = 0.2

Courant Number mean: 0.0530285 max: 0.724282
smoothSolver:  Solving for Ux, Initial residual = 0.00104473, Final residual = 4.84856e-07, No Iterations 2
smoothSolver:  Solving for Uy, Initial residual = 0.00339629, Final residual = 1.0652e-06, No Iterations 2
DICPCG:  Solving for p, Initial residual = 0.0229073, Final residual = 0.000972772, No Iterations 24
time step continuity errors : sum local = 1.39983e-08, global = 1.19929e-09, cumulative = 9.90786e-08
DICPCG:  Solving for p, Initial residual = 0.00602834, Final residual = 9.90688e-07, No Iterations 115
time step continuity errors : sum local = 1.41015e-11, global = 1.46151e-13, cumulative = 9.90787e-08
ExecutionTime = 3.14 s  ClockTime = 3 s

Time = 0.21

Courant Number mean: 0.0530259 max: 0.722238
smoothSolver:  Solving for Ux, Initial residual = 0.000989034, Final residual = 4.6418e-07, No Iterations 2
smoothSolver:  Solving for Uy, Initial residual = 0.00330551, Final residual = 1.04958e-06, No Iterations 2
DICPCG:  Solving for p, Initial residual = 0.021845, Final residual = 0.00103895, No Iterations 22
time step continuity errors : sum local = 1.47321e-08, global = 9.85605e-10, cumulative = 1.00064e-07
DICPCG:  Solving for p, Initial residual = 0.00582044, Final residual = 9.12666e-07, No Iterations 117
time step continuity errors : sum local = 1.2809e-11, global = 2.97188e-13, cumulative = 1.00065e-07
ExecutionTime = 3.23 s  ClockTime = 4 s

Time = 0.22

Courant Number mean: 0.0530235 max: 0.720074
smoothSolver:  Solving for Ux, Initial residual = 0.00093996, Final residual = 4.45637e-07, No Iterations 2
smoothSolver:  Solving for Uy, Initial residual = 0.00322802, Final residual = 1.03496e-06, No Iterations 2
DICPCG:  Solving for p, Initial residual = 0.0208582, Final residual = 0.000969511, No Iterations 19
time step continuity errors : sum local = 1.35536e-08, global = 6.32889e-10, cumulative = 1.00698e-07
DICPCG:  Solving for p, Initial residual = 0.00561479, Final residual = 8.17242e-07, No Iterations 118
time step continuity errors : sum local = 1.13125e-11, global = -7.16637e-14, cumulative = 1.00697e-07
ExecutionTime = 3.33 s  ClockTime = 4 s

Time = 0.23

Courant Number mean: 0.0530211 max: 0.71801
smoothSolver:  Solving for Ux, Initial residual = 0.000896442, Final residual = 4.28881e-07, No Iterations 2
smoothSolver:  Solving for Uy, Initial residual = 0.00316213, Final residual = 1.02174e-06, No Iterations 2
DICPCG:  Solving for p, Initial residual = 0.0199773, Final residual = 0.000983033, No Iterations 18
time step continuity errors : sum local = 1.35561e-08, global = 4.62029e-10, cumulative = 1.01159e-07
DICPCG:  Solving for p, Initial residual = 0.0054359, Final residual = 9.21352e-07, No Iterations 118
time step continuity errors : sum local = 1.25868e-11, global = -1.37249e-13, cumulative = 1.01159e-07
ExecutionTime = 3.43 s  ClockTime = 4 s

Time = 0.24

Courant Number mean: 0.0530189 max: 0.715883
smoothSolver:  Solving for Ux, Initial residual = 0.000857964, Final residual = 4.13656e-07, No Iterations 2
smoothSolver:  Solving for Uy, Initial residual = 0.00310438, Final residual = 1.00941e-06, No Iterations 2
DICPCG:  Solving for p, Initial residual = 0.0190991, Final residual = 0.000946297, No Iterations 17
time step continuity errors : sum local = 1.28809e-08, global = 3.51488e-10, cumulative = 1.01511e-07
DICPCG:  Solving for p, Initial residual = 0.00516602, Final residual = 9.85901e-07, No Iterations 120
time step continuity errors : sum local = 1.33027e-11, global = -1.89055e-13, cumulative = 1.01511e-07
ExecutionTime = 3.51 s  ClockTime = 4 s

Time = 0.25

Courant Number mean: 0.0530167 max: 0.713697
smoothSolver:  Solving for Ux, Initial residual = 0.000823793, Final residual = 3.99564e-07, No Iterations 2
smoothSolver:  Solving for Uy, Initial residual = 0.00305141, Final residual = 9.98117e-07, No Iterations 2
DICPCG:  Solving for p, Initial residual = 0.0182739, Final residual = 0.000906488, No Iterations 16
time step continuity errors : sum local = 1.21888e-08, global = 2.7728e-10, cumulative = 1.01788e-07
DICPCG:  Solving for p, Initial residual = 0.00498738, Final residual = 9.09915e-07, No Iterations 122
time step continuity errors : sum local = 1.2134e-11, global = -1.36592e-13, cumulative = 1.01788e-07
ExecutionTime = 3.6 s  ClockTime = 4 s

Time = 0.26

Courant Number mean: 0.0530146 max: 0.711464
smoothSolver:  Solving for Ux, Initial residual = 0.000793321, Final residual = 3.86539e-07, No Iterations 2
smoothSolver:  Solving for Uy, Initial residual = 0.00300422, Final residual = 9.87697e-07, No Iterations 2
DICPCG:  Solving for p, Initial residual = 0.0174819, Final residual = 0.000855724, No Iterations 16
time step continuity errors : sum local = 1.13755e-08, global = 2.48867e-10, cumulative = 1.02037e-07
DICPCG:  Solving for p, Initial residual = 0.00478883, Final residual = 9.93202e-07, No Iterations 118
time step continuity errors : sum local = 1.31011e-11, global = -3.43235e-14, cumulative = 1.02037e-07
ExecutionTime = 3.69 s  ClockTime = 4 s

Time = 0.27

Courant Number mean: 0.0530127 max: 0.709197
smoothSolver:  Solving for Ux, Initial residual = 0.000765901, Final residual = 3.74429e-07, No Iterations 2
smoothSolver:  Solving for Uy, Initial residual = 0.00296233, Final residual = 9.77968e-07, No Iterations 2
DICPCG:  Solving for p, Initial residual = 0.0167527, Final residual = 0.000825835, No Iterations 16
time step continuity errors : sum local = 1.08622e-08, global = 2.25478e-10, cumulative = 1.02262e-07
DICPCG:  Solving for p, Initial residual = 0.00461621, Final residual = 9.31458e-07, No Iterations 118
time step continuity errors : sum local = 1.2165e-11, global = 5.4622e-15, cumulative = 1.02262e-07
ExecutionTime = 3.78 s  ClockTime = 4 s

Time = 0.28

Courant Number mean: 0.0530108 max: 0.706922
smoothSolver:  Solving for Ux, Initial residual = 0.000740961, Final residual = 3.63167e-07, No Iterations 2
smoothSolver:  Solving for Uy, Initial residual = 0.00292402, Final residual = 9.68855e-07, No Iterations 2
DICPCG:  Solving for p, Initial residual = 0.0160679, Final residual = 0.000692991, No Iterations 18
time step continuity errors : sum local = 9.02863e-09, global = 2.77104e-10, cumulative = 1.02539e-07
DICPCG:  Solving for p, Initial residual = 0.00441837, Final residual = 9.03362e-07, No Iterations 117
time step continuity errors : sum local = 1.1694e-11, global = 1.43853e-13, cumulative = 1.02539e-07
ExecutionTime = 3.87 s  ClockTime = 4 s

Time = 0.29

Courant Number mean: 0.053009 max: 0.70484
smoothSolver:  Solving for Ux, Initial residual = 0.000718197, Final residual = 3.52724e-07, No Iterations 2
smoothSolver:  Solving for Uy, Initial residual = 0.00288886, Final residual = 9.60127e-07, No Iterations 2
DICPCG:  Solving for p, Initial residual = 0.0154319, Final residual = 0.000675766, No Iterations 18
time step continuity errors : sum local = 8.72789e-09, global = 2.60002e-10, cumulative = 1.02799e-07
DICPCG:  Solving for p, Initial residual = 0.00428615, Final residual = 8.19624e-07, No Iterations 117
time step continuity errors : sum local = 1.05238e-11, global = 1.77714e-13, cumulative = 1.028e-07
ExecutionTime = 3.96 s  ClockTime = 4 s

Time = 0.3

Courant Number mean: 0.0530073 max: 0.702754
smoothSolver:  Solving for Ux, Initial residual = 0.00069746, Final residual = 3.42961e-07, No Iterations 2
smoothSolver:  Solving for Uy, Initial residual = 0.00285559, Final residual = 9.52041e-07, No Iterations 2
DICPCG:  Solving for p, Initial residual = 0.0148378, Final residual = 0.000657693, No Iterations 18
time step continuity errors : sum local = 8.42654e-09, global = 2.45518e-10, cumulative = 1.03045e-07
DICPCG:  Solving for p, Initial residual = 0.00415261, Final residual = 9.20306e-07, No Iterations 116
time step continuity errors : sum local = 1.17261e-11, global = 2.7261e-13, cumulative = 1.03045e-07
ExecutionTime = 4.05 s  ClockTime = 5 s

Time = 0.31

Courant Number mean: 0.0530057 max: 0.700673
smoothSolver:  Solving for Ux, Initial residual = 0.000678477, Final residual = 3.33862e-07, No Iterations 2
smoothSolver:  Solving for Uy, Initial residual = 0.00282367, Final residual = 9.44058e-07, No Iterations 2
DICPCG:  Solving for p, Initial residual = 0.0142866, Final residual = 0.000648473, No Iterations 18
time step continuity errors : sum local = 8.24505e-09, global = 2.33929e-10, cumulative = 1.03279e-07
DICPCG:  Solving for p, Initial residual = 0.00403222, Final residual = 9.36297e-07, No Iterations 115
time step continuity errors : sum local = 1.1842e-11, global = 3.01903e-13, cumulative = 1.0328e-07
ExecutionTime = 4.14 s  ClockTime = 5 s

Time = 0.32

Courant Number mean: 0.0530042 max: 0.698603
smoothSolver:  Solving for Ux, Initial residual = 0.000661045, Final residual = 9.7591e-06, No Iterations 1
smoothSolver:  Solving for Uy, Initial residual = 0.00279421, Final residual = 9.36587e-07, No Iterations 2
DICPCG:  Solving for p, Initial residual = 0.0132614, Final residual = 0.000626633, No Iterations 19
time step continuity errors : sum local = 7.91281e-09, global = 3.29461e-10, cumulative = 1.03609e-07
DICPCG:  Solving for p, Initial residual = 0.00383107, Final residual = 9.9572e-07, No Iterations 107
time step continuity errors : sum local = 1.25116e-11, global = -1.15433e-15, cumulative = 1.03609e-07
ExecutionTime = 4.23 s  ClockTime = 5 s

Time = 0.33

Courant Number mean: 0.0530028 max: 0.696542
smoothSolver:  Solving for Ux, Initial residual = 0.000644372, Final residual = 9.50227e-06, No Iterations 1
smoothSolver:  Solving for Uy, Initial residual = 0.00276398, Final residual = 9.29328e-07, No Iterations 2
DICPCG:  Solving for p, Initial residual = 0.0127735, Final residual = 0.000590412, No Iterations 19
time step continuity errors : sum local = 7.40589e-09, global = 3.03178e-10, cumulative = 1.03912e-07
DICPCG:  Solving for p, Initial residual = 0.00370528, Final residual = 9.91903e-07, No Iterations 108
time step continuity errors : sum local = 1.23842e-11, global = 6.7749e-14, cumulative = 1.03912e-07
ExecutionTime = 4.31 s  ClockTime = 5 s

Time = 0.34

Courant Number mean: 0.0530015 max: 0.69451
smoothSolver:  Solving for Ux, Initial residual = 0.000629635, Final residual = 9.26449e-06, No Iterations 1
smoothSolver:  Solving for Uy, Initial residual = 0.00273958, Final residual = 9.22276e-07, No Iterations 2
DICPCG:  Solving for p, Initial residual = 0.0123041, Final residual = 0.00058027, No Iterations 19
time step continuity errors : sum local = 7.23188e-09, global = 2.94131e-10, cumulative = 1.04206e-07
DICPCG:  Solving for p, Initial residual = 0.0036033, Final residual = 8.15624e-07, No Iterations 109
time step continuity errors : sum local = 1.0121e-11, global = -8.34991e-14, cumulative = 1.04206e-07
ExecutionTime = 4.41 s  ClockTime = 5 s

Time = 0.35

Courant Number mean: 0.0530002 max: 0.692793
smoothSolver:  Solving for Ux, Initial residual = 0.000615826, Final residual = 9.04055e-06, No Iterations 1
smoothSolver:  Solving for Uy, Initial residual = 0.00271693, Final residual = 9.15538e-07, No Iterations 2
DICPCG:  Solving for p, Initial residual = 0.0118648, Final residual = 0.000572878, No Iterations 19
time step continuity errors : sum local = 7.09806e-09, global = 2.87317e-10, cumulative = 1.04494e-07
DICPCG:  Solving for p, Initial residual = 0.00350942, Final residual = 9.53992e-07, No Iterations 109
time step continuity errors : sum local = 1.17731e-11, global = -1.98611e-13, cumulative = 1.04493e-07
ExecutionTime = 4.5 s  ClockTime = 5 s

Time = 0.36

Courant Number mean: 0.052999 max: 0.691872
smoothSolver:  Solving for Ux, Initial residual = 0.00060292, Final residual = 8.82998e-06, No Iterations 1
smoothSolver:  Solving for Uy, Initial residual = 0.00269582, Final residual = 9.0883e-07, No Iterations 2
DICPCG:  Solving for p, Initial residual = 0.0114472, Final residual = 0.000567664, No Iterations 19
time step continuity errors : sum local = 6.99624e-09, global = 2.82203e-10, cumulative = 1.04776e-07
DICPCG:  Solving for p, Initial residual = 0.00342107, Final residual = 9.5151e-07, No Iterations 110
time step continuity errors : sum local = 1.16847e-11, global = -1.69302e-13, cumulative = 1.04775e-07
ExecutionTime = 4.58 s  ClockTime = 5 s

Time = 0.37

Courant Number mean: 0.0529979 max: 0.690931
smoothSolver:  Solving for Ux, Initial residual = 0.000590862, Final residual = 8.63056e-06, No Iterations 1
smoothSolver:  Solving for Uy, Initial residual = 0.00267638, Final residual = 9.02371e-07, No Iterations 2
DICPCG:  Solving for p, Initial residual = 0.0110561, Final residual = 0.000485766, No Iterations 21
time step continuity errors : sum local = 5.95784e-09, global = 3.50262e-10, cumulative = 1.05126e-07
DICPCG:  Solving for p, Initial residual = 0.00330222, Final residual = 9.87386e-07, No Iterations 116
time step continuity errors : sum local = 1.20692e-11, global = 6.49046e-14, cumulative = 1.05126e-07
ExecutionTime = 4.68 s  ClockTime = 5 s

Time = 0.38

Courant Number mean: 0.0529969 max: 0.689974
smoothSolver:  Solving for Ux, Initial residual = 0.00057948, Final residual = 8.44235e-06, No Iterations 1
smoothSolver:  Solving for Uy, Initial residual = 0.00265814, Final residual = 8.96089e-07, No Iterations 2
DICPCG:  Solving for p, Initial residual = 0.0106743, Final residual = 0.000484443, No Iterations 21
time step continuity errors : sum local = 5.91452e-09, global = 3.46871e-10, cumulative = 1.05473e-07
DICPCG:  Solving for p, Initial residual = 0.00322471, Final residual = 9.09434e-07, No Iterations 117
time step continuity errors : sum local = 1.1068e-11, global = 2.56528e-14, cumulative = 1.05473e-07
ExecutionTime = 4.77 s  ClockTime = 5 s

Time = 0.39

Courant Number mean: 0.0529959 max: 0.689019
smoothSolver:  Solving for Ux, Initial residual = 0.000568796, Final residual = 8.26468e-06, No Iterations 1
smoothSolver:  Solving for Uy, Initial residual = 0.00264072, Final residual = 8.89983e-07, No Iterations 2
DICPCG:  Solving for p, Initial residual = 0.0103303, Final residual = 0.000486248, No Iterations 21
time step continuity errors : sum local = 5.91128e-09, global = 3.44338e-10, cumulative = 1.05817e-07
DICPCG:  Solving for p, Initial residual = 0.00315487, Final residual = 9.42862e-07, No Iterations 117
time step continuity errors : sum local = 1.14275e-11, global = 3.79658e-14, cumulative = 1.05817e-07
ExecutionTime = 4.86 s  ClockTime = 6 s

Time = 0.4

Courant Number mean: 0.0529951 max: 0.688194
smoothSolver:  Solving for Ux, Initial residual = 0.000558717, Final residual = 8.09526e-06, No Iterations 1
smoothSolver:  Solving for Uy, Initial residual = 0.00262436, Final residual = 8.84015e-07, No Iterations 2
DICPCG:  Solving for p, Initial residual = 0.0100022, Final residual = 0.000489592, No Iterations 21
time step continuity errors : sum local = 5.92986e-09, global = 3.43006e-10, cumulative = 1.0616e-07
DICPCG:  Solving for p, Initial residual = 0.00308843, Final residual = 9.68266e-07, No Iterations 117
time step continuity errors : sum local = 1.16981e-11, global = 5.02222e-14, cumulative = 1.0616e-07
ExecutionTime = 4.95 s  ClockTime = 6 s

Time = 0.41

Courant Number mean: 0.0529943 max: 0.687361
smoothSolver:  Solving for Ux, Initial residual = 0.000549214, Final residual = 7.93456e-06, No Iterations 1
smoothSolver:  Solving for Uy, Initial residual = 0.00260906, Final residual = 8.78235e-07, No Iterations 2
DICPCG:  Solving for p, Initial residual = 0.00968693, Final residual = 0.00044528, No Iterations 22
time step continuity errors : sum local = 5.37898e-09, global = 3.55223e-10, cumulative = 1.06515e-07
DICPCG:  Solving for p, Initial residual = 0.00296266, Final residual = 8.61927e-07, No Iterations 118
time step continuity errors : sum local = 1.03927e-11, global = 5.39921e-14, cumulative = 1.06515e-07
ExecutionTime = 5.04 s  ClockTime = 6 s

Time = 0.42

Courant Number mean: 0.0529936 max: 0.686521
smoothSolver:  Solving for Ux, Initial residual = 0.000540253, Final residual = 7.78024e-06, No Iterations 1
smoothSolver:  Solving for Uy, Initial residual = 0.00259398, Final residual = 8.72461e-07, No Iterations 2
DICPCG:  Solving for p, Initial residual = 0.00937564, Final residual = 0.000456554, No Iterations 22
time step continuity errors : sum local = 5.50462e-09, global = 3.57047e-10, cumulative = 1.06872e-07
DICPCG:  Solving for p, Initial residual = 0.00290388, Final residual = 8.77763e-07, No Iterations 118
time step continuity errors : sum local = 1.0565e-11, global = 6.52937e-14, cumulative = 1.06873e-07
ExecutionTime = 5.13 s  ClockTime = 6 s

Time = 0.43

Courant Number mean: 0.0529929 max: 0.685676
smoothSolver:  Solving for Ux, Initial residual = 0.000531739, Final residual = 7.633e-06, No Iterations 1
smoothSolver:  Solving for Uy, Initial residual = 0.0025792, Final residual = 8.66814e-07, No Iterations 2
DICPCG:  Solving for p, Initial residual = 0.00908571, Final residual = 0.000452022, No Iterations 24
time step continuity errors : sum local = 5.44062e-09, global = 4.04829e-10, cumulative = 1.07277e-07
DICPCG:  Solving for p, Initial residual = 0.00283469, Final residual = 9.32893e-07, No Iterations 117
time step continuity errors : sum local = 1.12106e-11, global = 1.23097e-13, cumulative = 1.07277e-07
ExecutionTime = 5.22 s  ClockTime = 6 s

Time = 0.44

Courant Number mean: 0.0529923 max: 0.684827
smoothSolver:  Solving for Ux, Initial residual = 0.000523668, Final residual = 7.49216e-06, No Iterations 1
smoothSolver:  Solving for Uy, Initial residual = 0.00256461, Final residual = 8.61189e-07, No Iterations 2
DICPCG:  Solving for p, Initial residual = 0.00882637, Final residual = 0.000412941, No Iterations 31
time step continuity errors : sum local = 4.96238e-09, global = 6.15409e-10, cumulative = 1.07893e-07
DICPCG:  Solving for p, Initial residual = 0.00277472, Final residual = 9.284e-07, No Iterations 116
time step continuity errors : sum local = 1.11419e-11, global = 1.23951e-13, cumulative = 1.07893e-07
ExecutionTime = 5.32 s  ClockTime = 6 s

Time = 0.45

Courant Number mean: 0.0529917 max: 0.683974
smoothSolver:  Solving for Ux, Initial residual = 0.000516035, Final residual = 7.35613e-06, No Iterations 1
smoothSolver:  Solving for Uy, Initial residual = 0.00255029, Final residual = 8.5566e-07, No Iterations 2
DICPCG:  Solving for p, Initial residual = 0.0085771, Final residual = 0.00042875, No Iterations 31
time step continuity errors : sum local = 5.1445e-09, global = 6.27132e-10, cumulative = 1.0852e-07
DICPCG:  Solving for p, Initial residual = 0.00273354, Final residual = 9.80721e-07, No Iterations 116
time step continuity errors : sum local = 1.17527e-11, global = 1.01481e-13, cumulative = 1.0852e-07
ExecutionTime = 5.41 s  ClockTime = 6 s

Time = 0.46

Courant Number mean: 0.0529912 max: 0.683117
smoothSolver:  Solving for Ux, Initial residual = 0.000508837, Final residual = 7.22606e-06, No Iterations 1
smoothSolver:  Solving for Uy, Initial residual = 0.00253746, Final residual = 8.50147e-07, No Iterations 2
DICPCG:  Solving for p, Initial residual = 0.00834133, Final residual = 0.000366349, No Iterations 33
time step continuity errors : sum local = 4.39022e-09, global = 5.20076e-10, cumulative = 1.0904e-07
DICPCG:  Solving for p, Initial residual = 0.00265329, Final residual = 8.43779e-07, No Iterations 118
time step continuity errors : sum local = 1.01019e-11, global = -7.84495e-14, cumulative = 1.0904e-07
ExecutionTime = 5.51 s  ClockTime = 6 s

Time = 0.47

Courant Number mean: 0.0529907 max: 0.682257
smoothSolver:  Solving for Ux, Initial residual = 0.000501963, Final residual = 7.10094e-06, No Iterations 1
smoothSolver:  Solving for Uy, Initial residual = 0.00252586, Final residual = 8.44864e-07, No Iterations 2
DICPCG:  Solving for p, Initial residual = 0.00810356, Final residual = 0.000371038, No Iterations 33
time step continuity errors : sum local = 4.44309e-09, global = 5.14763e-10, cumulative = 1.09555e-07
DICPCG:  Solving for p, Initial residual = 0.00260364, Final residual = 8.65989e-07, No Iterations 118
time step continuity errors : sum local = 1.0363e-11, global = -8.23872e-14, cumulative = 1.09555e-07
ExecutionTime = 5.6 s  ClockTime = 6 s

Time = 0.48

Courant Number mean: 0.0529903 max: 0.681393
smoothSolver:  Solving for Ux, Initial residual = 0.000495423, Final residual = 6.98035e-06, No Iterations 1
smoothSolver:  Solving for Uy, Initial residual = 0.00251511, Final residual = 8.39483e-07, No Iterations 2
DICPCG:  Solving for p, Initial residual = 0.00788874, Final residual = 0.000372907, No Iterations 33
time step continuity errors : sum local = 4.46414e-09, global = 5.05895e-10, cumulative = 1.10061e-07
DICPCG:  Solving for p, Initial residual = 0.00255561, Final residual = 8.79502e-07, No Iterations 118
time step continuity errors : sum local = 1.05245e-11, global = -7.97046e-14, cumulative = 1.10061e-07
ExecutionTime = 5.7 s  ClockTime = 7 s

Time = 0.49

Courant Number mean: 0.0529899 max: 0.680525
smoothSolver:  Solving for Ux, Initial residual = 0.000489172, Final residual = 6.86368e-06, No Iterations 1
smoothSolver:  Solving for Uy, Initial residual = 0.0025064, Final residual = 8.34044e-07, No Iterations 2
DICPCG:  Solving for p, Initial residual = 0.00768685, Final residual = 0.000375249, No Iterations 33
time step continuity errors : sum local = 4.49255e-09, global = 4.97298e-10, cumulative = 1.10558e-07
DICPCG:  Solving for p, Initial residual = 0.00251047, Final residual = 8.86523e-07, No Iterations 118
time step continuity errors : sum local = 1.06107e-11, global = -7.56695e-14, cumulative = 1.10558e-07
ExecutionTime = 5.8 s  ClockTime = 7 s

Time = 0.5

Courant Number mean: 0.0529896 max: 0.679653
smoothSolver:  Solving for Ux, Initial residual = 0.000483196, Final residual = 6.75068e-06, No Iterations 1
smoothSolver:  Solving for Uy, Initial residual = 0.00250044, Final residual = 8.28706e-07, No Iterations 2
DICPCG:  Solving for p, Initial residual = 0.00749582, Final residual = 0.000328022, No Iterations 34
time step continuity errors : sum local = 3.92783e-09, global = 4.99723e-10, cumulative = 1.11058e-07
DICPCG:  Solving for p, Initial residual = 0.00240672, Final residual = 9.23918e-07, No Iterations 118
time step continuity errors : sum local = 1.10611e-11, global = -7.44732e-14, cumulative = 1.11058e-07
ExecutionTime = 5.89 s  ClockTime = 7 s

Time = 0.51

Courant Number mean: 0.0529893 max: 0.678871
smoothSolver:  Solving for Ux, Initial residual = 0.000477451, Final residual = 6.64248e-06, No Iterations 1
smoothSolver:  Solving for Uy, Initial residual = 0.00249485, Final residual = 8.23421e-07, No Iterations 2
DICPCG:  Solving for p, Initial residual = 0.00731818, Final residual = 0.000331785, No Iterations 34
time step continuity errors : sum local = 3.97372e-09, global = 4.91699e-10, cumulative = 1.11549e-07
DICPCG:  Solving for p, Initial residual = 0.00236855, Final residual = 9.21918e-07, No Iterations 118
time step continuity errors : sum local = 1.10398e-11, global = -6.75924e-14, cumulative = 1.11549e-07
ExecutionTime = 5.99 s  ClockTime = 7 s

Time = 0.52

Courant Number mean: 0.0529891 max: 0.678087
smoothSolver:  Solving for Ux, Initial residual = 0.000471989, Final residual = 6.5376e-06, No Iterations 1
smoothSolver:  Solving for Uy, Initial residual = 0.00248939, Final residual = 8.18101e-07, No Iterations 2
DICPCG:  Solving for p, Initial residual = 0.00714841, Final residual = 0.000329935, No Iterations 34
time step continuity errors : sum local = 3.95263e-09, global = 4.84102e-10, cumulative = 1.12033e-07
DICPCG:  Solving for p, Initial residual = 0.00232613, Final residual = 9.20336e-07, No Iterations 118
time step continuity errors : sum local = 1.10246e-11, global = -5.88624e-14, cumulative = 1.12033e-07
ExecutionTime = 6.09 s  ClockTime = 7 s

Time = 0.53

Courant Number mean: 0.0529889 max: 0.677295
smoothSolver:  Solving for Ux, Initial residual = 0.000466731, Final residual = 6.43576e-06, No Iterations 1
smoothSolver:  Solving for Uy, Initial residual = 0.00248441, Final residual = 8.12813e-07, No Iterations 2
DICPCG:  Solving for p, Initial residual = 0.00698767, Final residual = 0.000332006, No Iterations 34
time step continuity errors : sum local = 3.97882e-09, global = 4.75365e-10, cumulative = 1.12509e-07
DICPCG:  Solving for p, Initial residual = 0.00229105, Final residual = 9.21991e-07, No Iterations 118
time step continuity errors : sum local = 1.10485e-11, global = -4.97736e-14, cumulative = 1.12509e-07
ExecutionTime = 6.19 s  ClockTime = 7 s

Time = 0.54

Courant Number mean: 0.0529888 max: 0.676493
smoothSolver:  Solving for Ux, Initial residual = 0.000461681, Final residual = 6.33743e-06, No Iterations 1
smoothSolver:  Solving for Uy, Initial residual = 0.00247973, Final residual = 8.07568e-07, No Iterations 2
DICPCG:  Solving for p, Initial residual = 0.00683448, Final residual = 0.000330267, No Iterations 34
time step continuity errors : sum local = 3.95961e-09, global = 4.68602e-10, cumulative = 1.12977e-07
DICPCG:  Solving for p, Initial residual = 0.00225337, Final residual = 9.15133e-07, No Iterations 118
time step continuity errors : sum local = 1.09715e-11, global = -4.09955e-14, cumulative = 1.12977e-07
ExecutionTime = 6.27 s  ClockTime = 7 s

Time = 0.55

Courant Number mean: 0.0529887 max: 0.675682
smoothSolver:  Solving for Ux, Initial residual = 0.000456868, Final residual = 6.24237e-06, No Iterations 1
smoothSolver:  Solving for Uy, Initial residual = 0.00247489, Final residual = 8.02378e-07, No Iterations 2
DICPCG:  Solving for p, Initial residual = 0.00669274, Final residual = 0.000331936, No Iterations 34
time step continuity errors : sum local = 3.98184e-09, global = 4.60449e-10, cumulative = 1.13438e-07
DICPCG:  Solving for p, Initial residual = 0.00222125, Final residual = 9.14684e-07, No Iterations 118
time step continuity errors : sum local = 1.09739e-11, global = -3.24081e-14, cumulative = 1.13438e-07
ExecutionTime = 6.37 s  ClockTime = 7 s

Time = 0.56

Courant Number mean: 0.0529886 max: 0.674863
smoothSolver:  Solving for Ux, Initial residual = 0.000452252, Final residual = 6.15039e-06, No Iterations 1
smoothSolver:  Solving for Uy, Initial residual = 0.00246969, Final residual = 7.97225e-07, No Iterations 2
DICPCG:  Solving for p, Initial residual = 0.00656025, Final residual = 0.000272345, No Iterations 35
time step continuity errors : sum local = 3.26932e-09, global = 4.75519e-10, cumulative = 1.13913e-07
DICPCG:  Solving for p, Initial residual = 0.00215188, Final residual = 9.35534e-07, No Iterations 118
time step continuity errors : sum local = 1.12324e-11, global = -2.29895e-14, cumulative = 1.13913e-07
ExecutionTime = 6.47 s  ClockTime = 9 s

Time = 0.57

Courant Number mean: 0.0529886 max: 0.674034
smoothSolver:  Solving for Ux, Initial residual = 0.000447861, Final residual = 6.06144e-06, No Iterations 1
smoothSolver:  Solving for Uy, Initial residual = 0.00246408, Final residual = 7.92113e-07, No Iterations 2
DICPCG:  Solving for p, Initial residual = 0.00643101, Final residual = 0.000271393, No Iterations 35
time step continuity errors : sum local = 3.26036e-09, global = 4.70247e-10, cumulative = 1.14383e-07
DICPCG:  Solving for p, Initial residual = 0.00211833, Final residual = 9.32516e-07, No Iterations 118
time step continuity errors : sum local = 1.12052e-11, global = -1.4199e-14, cumulative = 1.14383e-07
ExecutionTime = 6.57 s  ClockTime = 9 s

Time = 0.58

Courant Number mean: 0.0529886 max: 0.673196
smoothSolver:  Solving for Ux, Initial residual = 0.000443655, Final residual = 5.97501e-06, No Iterations 1
smoothSolver:  Solving for Uy, Initial residual = 0.00245819, Final residual = 7.86986e-07, No Iterations 2
DICPCG:  Solving for p, Initial residual = 0.00631424, Final residual = 0.000269296, No Iterations 35
time step continuity errors : sum local = 3.23791e-09, global = 4.639e-10, cumulative = 1.14847e-07
DICPCG:  Solving for p, Initial residual = 0.00208569, Final residual = 9.24569e-07, No Iterations 118
time step continuity errors : sum local = 1.11201e-11, global = -4.55338e-15, cumulative = 1.14847e-07
ExecutionTime = 6.66 s  ClockTime = 9 s

Time = 0.59

Courant Number mean: 0.0529887 max: 0.672351
smoothSolver:  Solving for Ux, Initial residual = 0.000439587, Final residual = 5.8914e-06, No Iterations 1
smoothSolver:  Solving for Uy, Initial residual = 0.00245199, Final residual = 7.81969e-07, No Iterations 2
DICPCG:  Solving for p, Initial residual = 0.00620531, Final residual = 0.000270058, No Iterations 35
time step continuity errors : sum local = 3.24998e-09, global = 4.58034e-10, cumulative = 1.15305e-07
DICPCG:  Solving for p, Initial residual = 0.00205743, Final residual = 9.13137e-07, No Iterations 118
time step continuity errors : sum local = 1.09922e-11, global = 6.29709e-15, cumulative = 1.15305e-07
ExecutionTime = 6.76 s  ClockTime = 9 s

Time = 0.6

Courant Number mean: 0.0529888 max: 0.671499
smoothSolver:  Solving for Ux, Initial residual = 0.000435653, Final residual = 5.81008e-06, No Iterations 1
smoothSolver:  Solving for Uy, Initial residual = 0.00244557, Final residual = 7.76956e-07, No Iterations 2
DICPCG:  Solving for p, Initial residual = 0.00610191, Final residual = 0.000272828, No Iterations 35
time step continuity errors : sum local = 3.28616e-09, global = 4.51688e-10, cumulative = 1.15757e-07
DICPCG:  Solving for p, Initial residual = 0.00203064, Final residual = 9.03105e-07, No Iterations 118
time step continuity errors : sum local = 1.08807e-11, global = 1.56383e-14, cumulative = 1.15757e-07
ExecutionTime = 6.86 s  ClockTime = 9 s

Time = 0.61

Courant Number mean: 0.0529889 max: 0.670817
smoothSolver:  Solving for Ux, Initial residual = 0.00043187, Final residual = 5.7307e-06, No Iterations 1
smoothSolver:  Solving for Uy, Initial residual = 0.00243933, Final residual = 7.71989e-07, No Iterations 2
DICPCG:  Solving for p, Initial residual = 0.0060045, Final residual = 0.000270877, No Iterations 35
time step continuity errors : sum local = 3.26561e-09, global = 4.46009e-10, cumulative = 1.16203e-07
DICPCG:  Solving for p, Initial residual = 0.00200321, Final residual = 9.03135e-07, No Iterations 118
time step continuity errors : sum local = 1.08917e-11, global = 2.30006e-14, cumulative = 1.16203e-07
ExecutionTime = 6.96 s  ClockTime = 9 s

Time = 0.62

Courant Number mean: 0.0529891 max: 0.670341
smoothSolver:  Solving for Ux, Initial residual = 0.000428193, Final residual = 5.65286e-06, No Iterations 1
smoothSolver:  Solving for Uy, Initial residual = 0.00243293, Final residual = 7.6701e-07, No Iterations 2
DICPCG:  Solving for p, Initial residual = 0.00591206, Final residual = 0.000274406, No Iterations 35
time step continuity errors : sum local = 3.31139e-09, global = 4.39767e-10, cumulative = 1.16643e-07
DICPCG:  Solving for p, Initial residual = 0.00197968, Final residual = 9.00765e-07, No Iterations 118
time step continuity errors : sum local = 1.08744e-11, global = 3.10079e-14, cumulative = 1.16643e-07
ExecutionTime = 7.06 s  ClockTime = 9 s

Time = 0.63

Courant Number mean: 0.0529894 max: 0.669845
smoothSolver:  Solving for Ux, Initial residual = 0.000424604, Final residual = 5.57656e-06, No Iterations 1
smoothSolver:  Solving for Uy, Initial residual = 0.00242625, Final residual = 7.62053e-07, No Iterations 2
DICPCG:  Solving for p, Initial residual = 0.00582624, Final residual = 0.000272024, No Iterations 35
time step continuity errors : sum local = 3.28613e-09, global = 4.34062e-10, cumulative = 1.17077e-07
DICPCG:  Solving for p, Initial residual = 0.00195245, Final residual = 8.93645e-07, No Iterations 118
time step continuity errors : sum local = 1.08004e-11, global = 3.89023e-14, cumulative = 1.17077e-07
ExecutionTime = 7.16 s  ClockTime = 10 s

Time = 0.64

Courant Number mean: 0.0529897 max: 0.669329
smoothSolver:  Solving for Ux, Initial residual = 0.000421134, Final residual = 5.50222e-06, No Iterations 1
smoothSolver:  Solving for Uy, Initial residual = 0.00241946, Final residual = 7.57101e-07, No Iterations 2
DICPCG:  Solving for p, Initial residual = 0.00574601, Final residual = 0.00027269, No Iterations 35
time step continuity errors : sum local = 3.29776e-09, global = 4.27835e-10, cumulative = 1.17505e-07
DICPCG:  Solving for p, Initial residual = 0.00192934, Final residual = 8.88159e-07, No Iterations 118
time step continuity errors : sum local = 1.07458e-11, global = 4.63096e-14, cumulative = 1.17505e-07
ExecutionTime = 7.25 s  ClockTime = 10 s

Time = 0.65

Courant Number mean: 0.05299 max: 0.668796
smoothSolver:  Solving for Ux, Initial residual = 0.000417784, Final residual = 5.42916e-06, No Iterations 1
smoothSolver:  Solving for Uy, Initial residual = 0.00241251, Final residual = 7.5216e-07, No Iterations 2
DICPCG:  Solving for p, Initial residual = 0.00567628, Final residual = 0.000269264, No Iterations 35
time step continuity errors : sum local = 3.25982e-09, global = 4.22305e-10, cumulative = 1.17927e-07
DICPCG:  Solving for p, Initial residual = 0.00190433, Final residual = 8.85369e-07, No Iterations 118
time step continuity errors : sum local = 1.07235e-11, global = 5.2713e-14, cumulative = 1.17927e-07
ExecutionTime = 7.35 s  ClockTime = 10 s

Time = 0.66

Courant Number mean: 0.0529904 max: 0.668245
smoothSolver:  Solving for Ux, Initial residual = 0.000414496, Final residual = 5.35753e-06, No Iterations 1
smoothSolver:  Solving for Uy, Initial residual = 0.00240538, Final residual = 7.47281e-07, No Iterations 2
DICPCG:  Solving for p, Initial residual = 0.00561308, Final residual = 0.000270878, No Iterations 35
time step continuity errors : sum local = 3.28278e-09, global = 4.16275e-10, cumulative = 1.18343e-07
DICPCG:  Solving for p, Initial residual = 0.00188424, Final residual = 8.79047e-07, No Iterations 118
time step continuity errors : sum local = 1.06579e-11, global = 5.95054e-14, cumulative = 1.18343e-07
ExecutionTime = 7.45 s  ClockTime = 10 s

Time = 0.67

Courant Number mean: 0.0529909 max: 0.667679
smoothSolver:  Solving for Ux, Initial residual = 0.000411274, Final residual = 5.28741e-06, No Iterations 1
smoothSolver:  Solving for Uy, Initial residual = 0.0023982, Final residual = 7.42418e-07, No Iterations 2
DICPCG:  Solving for p, Initial residual = 0.00555271, Final residual = 0.000268567, No Iterations 35
time step continuity errors : sum local = 3.25821e-09, global = 4.10821e-10, cumulative = 1.18754e-07
DICPCG:  Solving for p, Initial residual = 0.0018629, Final residual = 9.99876e-07, No Iterations 117
time step continuity errors : sum local = 1.2136e-11, global = 7.40029e-14, cumulative = 1.18754e-07
ExecutionTime = 7.55 s  ClockTime = 10 s

Time = 0.68

Courant Number mean: 0.0529914 max: 0.667099
smoothSolver:  Solving for Ux, Initial residual = 0.000408177, Final residual = 5.2189e-06, No Iterations 1
smoothSolver:  Solving for Uy, Initial residual = 0.00239149, Final residual = 7.37484e-07, No Iterations 2
DICPCG:  Solving for p, Initial residual = 0.00549466, Final residual = 0.000269736, No Iterations 35
time step continuity errors : sum local = 3.27588e-09, global = 4.04995e-10, cumulative = 1.19159e-07
DICPCG:  Solving for p, Initial residual = 0.00184479, Final residual = 9.90845e-07, No Iterations 117
time step continuity errors : sum local = 1.20394e-11, global = 7.64767e-14, cumulative = 1.19159e-07
ExecutionTime = 7.64 s  ClockTime = 10 s

Time = 0.69

Courant Number mean: 0.052992 max: 0.666507
smoothSolver:  Solving for Ux, Initial residual = 0.000405164, Final residual = 5.15129e-06, No Iterations 1
smoothSolver:  Solving for Uy, Initial residual = 0.00238495, Final residual = 7.32574e-07, No Iterations 2
DICPCG:  Solving for p, Initial residual = 0.00543892, Final residual = 0.000268454, No Iterations 35
time step continuity errors : sum local = 3.26383e-09, global = 3.99383e-10, cumulative = 1.19559e-07
DICPCG:  Solving for p, Initial residual = 0.00182568, Final residual = 9.9835e-07, No Iterations 117
time step continuity errors : sum local = 1.21436e-11, global = 8.1116e-14, cumulative = 1.19559e-07
ExecutionTime = 7.75 s  ClockTime = 10 s

Time = 0.7

Courant Number mean: 0.0529926 max: 0.665904
smoothSolver:  Solving for Ux, Initial residual = 0.000402229, Final residual = 5.08478e-06, No Iterations 1
smoothSolver:  Solving for Uy, Initial residual = 0.00237838, Final residual = 7.2761e-07, No Iterations 2
DICPCG:  Solving for p, Initial residual = 0.00538671, Final residual = 0.000268212, No Iterations 35
time step continuity errors : sum local = 3.26434e-09, global = 3.93795e-10, cumulative = 1.19953e-07
DICPCG:  Solving for p, Initial residual = 0.00180872, Final residual = 9.8777e-07, No Iterations 117
time step continuity errors : sum local = 1.20277e-11, global = 8.23487e-14, cumulative = 1.19953e-07
ExecutionTime = 7.84 s  ClockTime = 10 s

Time = 0.71

Courant Number mean: 0.0529933 max: 0.665293
smoothSolver:  Solving for Ux, Initial residual = 0.000399373, Final residual = 5.01971e-06, No Iterations 1
smoothSolver:  Solving for Uy, Initial residual = 0.00237145, Final residual = 7.22711e-07, No Iterations 2
DICPCG:  Solving for p, Initial residual = 0.00533649, Final residual = 0.000230835, No Iterations 36
time step continuity errors : sum local = 2.81232e-09, global = 3.67705e-10, cumulative = 1.2032e-07
DICPCG:  Solving for p, Initial residual = 0.00176705, Final residual = 9.72673e-07, No Iterations 117
time step continuity errors : sum local = 1.1856e-11, global = 8.74324e-14, cumulative = 1.20321e-07
ExecutionTime = 7.94 s  ClockTime = 10 s

Time = 0.72

Courant Number mean: 0.0529941 max: 0.664674
smoothSolver:  Solving for Ux, Initial residual = 0.000396592, Final residual = 4.95592e-06, No Iterations 1
smoothSolver:  Solving for Uy, Initial residual = 0.00236449, Final residual = 7.17807e-07, No Iterations 2
DICPCG:  Solving for p, Initial residual = 0.00528909, Final residual = 0.000232231, No Iterations 36
time step continuity errors : sum local = 2.83217e-09, global = 3.61637e-10, cumulative = 1.20682e-07
DICPCG:  Solving for p, Initial residual = 0.00175358, Final residual = 9.65487e-07, No Iterations 117
time step continuity errors : sum local = 1.17803e-11, global = 8.85323e-14, cumulative = 1.20682e-07
ExecutionTime = 8.04 s  ClockTime = 11 s

Time = 0.73

Courant Number mean: 0.0529949 max: 0.664049
smoothSolver:  Solving for Ux, Initial residual = 0.000393874, Final residual = 4.89347e-06, No Iterations 1
smoothSolver:  Solving for Uy, Initial residual = 0.00235755, Final residual = 7.12851e-07, No Iterations 2
DICPCG:  Solving for p, Initial residual = 0.00524303, Final residual = 0.00023183, No Iterations 36
time step continuity errors : sum local = 2.83011e-09, global = 3.5722e-10, cumulative = 1.21039e-07
DICPCG:  Solving for p, Initial residual = 0.00173648, Final residual = 9.6367e-07, No Iterations 117
time step continuity errors : sum local = 1.17698e-11, global = 8.90165e-14, cumulative = 1.2104e-07
ExecutionTime = 8.13 s  ClockTime = 11 s

Time = 0.74

Courant Number mean: 0.0529957 max: 0.66342
smoothSolver:  Solving for Ux, Initial residual = 0.000391201, Final residual = 4.83213e-06, No Iterations 1
smoothSolver:  Solving for Uy, Initial residual = 0.0023505, Final residual = 7.0793e-07, No Iterations 2
DICPCG:  Solving for p, Initial residual = 0.00519769, Final residual = 0.000232583, No Iterations 36
time step continuity errors : sum local = 2.84212e-09, global = 3.51236e-10, cumulative = 1.21391e-07
DICPCG:  Solving for p, Initial residual = 0.00172175, Final residual = 9.56888e-07, No Iterations 117
time step continuity errors : sum local = 1.16988e-11, global = 8.93042e-14, cumulative = 1.21391e-07
ExecutionTime = 8.23 s  ClockTime = 11 s

Time = 0.75

Courant Number mean: 0.0529966 max: 0.662788
smoothSolver:  Solving for Ux, Initial residual = 0.000388574, Final residual = 4.77165e-06, No Iterations 1
smoothSolver:  Solving for Uy, Initial residual = 0.00234329, Final residual = 7.03045e-07, No Iterations 2
DICPCG:  Solving for p, Initial residual = 0.00515393, Final residual = 0.000231656, No Iterations 36
time step continuity errors : sum local = 2.83364e-09, global = 3.47735e-10, cumulative = 1.21739e-07
DICPCG:  Solving for p, Initial residual = 0.00170518, Final residual = 9.40231e-07, No Iterations 117
time step continuity errors : sum local = 1.15068e-11, global = 8.92295e-14, cumulative = 1.21739e-07
ExecutionTime = 8.33 s  ClockTime = 11 s

Time = 0.76

Courant Number mean: 0.0529976 max: 0.662154
smoothSolver:  Solving for Ux, Initial residual = 0.000385993, Final residual = 4.7117e-06, No Iterations 1
smoothSolver:  Solving for Uy, Initial residual = 0.00233615, Final residual = 6.98139e-07, No Iterations 2
DICPCG:  Solving for p, Initial residual = 0.00511051, Final residual = 0.000233372, No Iterations 36
time step continuity errors : sum local = 2.85748e-09, global = 3.42384e-10, cumulative = 1.22081e-07
DICPCG:  Solving for p, Initial residual = 0.00169249, Final residual = 9.28555e-07, No Iterations 117
time step continuity errors : sum local = 1.13751e-11, global = 8.8883e-14, cumulative = 1.22081e-07
ExecutionTime = 8.43 s  ClockTime = 11 s

Time = 0.77

Courant Number mean: 0.0529986 max: 0.661521
smoothSolver:  Solving for Ux, Initial residual = 0.000383463, Final residual = 4.65253e-06, No Iterations 1
smoothSolver:  Solving for Uy, Initial residual = 0.00232958, Final residual = 6.93193e-07, No Iterations 2
DICPCG:  Solving for p, Initial residual = 0.0050674, Final residual = 0.000232131, No Iterations 36
time step continuity errors : sum local = 2.84499e-09, global = 3.39066e-10, cumulative = 1.2242e-07
DICPCG:  Solving for p, Initial residual = 0.00167836, Final residual = 9.18114e-07, No Iterations 117
time step continuity errors : sum local = 1.12578e-11, global = 8.85789e-14, cumulative = 1.2242e-07
ExecutionTime = 8.53 s  ClockTime = 11 s

Time = 0.78

Courant Number mean: 0.0529997 max: 0.660888
smoothSolver:  Solving for Ux, Initial residual = 0.000380981, Final residual = 4.59432e-06, No Iterations 1
smoothSolver:  Solving for Uy, Initial residual = 0.00232481, Final residual = 6.88273e-07, No Iterations 2
DICPCG:  Solving for p, Initial residual = 0.00502529, Final residual = 0.000232937, No Iterations 36
time step continuity errors : sum local = 2.85754e-09, global = 3.33395e-10, cumulative = 1.22754e-07
DICPCG:  Solving for p, Initial residual = 0.00166735, Final residual = 9.01424e-07, No Iterations 117
time step continuity errors : sum local = 1.10635e-11, global = 8.81552e-14, cumulative = 1.22754e-07
ExecutionTime = 8.62 s  ClockTime = 11 s

Time = 0.79

Courant Number mean: 0.0530009 max: 0.660258
smoothSolver:  Solving for Ux, Initial residual = 0.000378542, Final residual = 4.53712e-06, No Iterations 1
smoothSolver:  Solving for Uy, Initial residual = 0.0023199, Final residual = 6.83363e-07, No Iterations 2
DICPCG:  Solving for p, Initial residual = 0.00498644, Final residual = 0.000231235, No Iterations 36
time step continuity errors : sum local = 2.83925e-09, global = 3.29637e-10, cumulative = 1.23083e-07
DICPCG:  Solving for p, Initial residual = 0.0016532, Final residual = 8.97645e-07, No Iterations 117
time step continuity errors : sum local = 1.1027e-11, global = 8.84186e-14, cumulative = 1.23084e-07
ExecutionTime = 8.71 s  ClockTime = 11 s

Time = 0.8

Courant Number mean: 0.0530022 max: 0.659631
smoothSolver:  Solving for Ux, Initial residual = 0.000376168, Final residual = 4.48094e-06, No Iterations 1
smoothSolver:  Solving for Uy, Initial residual = 0.00231468, Final residual = 6.78411e-07, No Iterations 2
DICPCG:  Solving for p, Initial residual = 0.00494944, Final residual = 0.000232205, No Iterations 36
time step continuity errors : sum local = 2.85385e-09, global = 3.23721e-10, cumulative = 1.23407e-07
DICPCG:  Solving for p, Initial residual = 0.00164296, Final residual = 8.9009e-07, No Iterations 117
time step continuity errors : sum local = 1.0945e-11, global = 8.84521e-14, cumulative = 1.23407e-07
ExecutionTime = 8.81 s  ClockTime = 11 s

Time = 0.81

Courant Number mean: 0.0530034 max: 0.659008
smoothSolver:  Solving for Ux, Initial residual = 0.000373825, Final residual = 4.42535e-06, No Iterations 1
smoothSolver:  Solving for Uy, Initial residual = 0.00230935, Final residual = 6.73447e-07, No Iterations 2
DICPCG:  Solving for p, Initial residual = 0.00491418, Final residual = 0.000230228, No Iterations 36
time step continuity errors : sum local = 2.83235e-09, global = 3.19689e-10, cumulative = 1.23727e-07
DICPCG:  Solving for p, Initial residual = 0.00162775, Final residual = 8.81622e-07, No Iterations 117
time step continuity errors : sum local = 1.08518e-11, global = 8.89368e-14, cumulative = 1.23727e-07
ExecutionTime = 8.91 s  ClockTime = 12 s

Time = 0.82

Courant Number mean: 0.0530047 max: 0.65839
smoothSolver:  Solving for Ux, Initial residual = 0.000371509, Final residual = 4.37027e-06, No Iterations 1
smoothSolver:  Solving for Uy, Initial residual = 0.00230394, Final residual = 6.6851e-07, No Iterations 2
DICPCG:  Solving for p, Initial residual = 0.00487938, Final residual = 0.000231218, No Iterations 36
time step continuity errors : sum local = 2.84736e-09, global = 3.1361e-10, cumulative = 1.24041e-07
DICPCG:  Solving for p, Initial residual = 0.00161764, Final residual = 8.77574e-07, No Iterations 117
time step continuity errors : sum local = 1.08127e-11, global = 8.91361e-14, cumulative = 1.24041e-07
ExecutionTime = 9.02 s  ClockTime = 12 s

Time = 0.83

Courant Number mean: 0.0530061 max: 0.657865
smoothSolver:  Solving for Ux, Initial residual = 0.000369229, Final residual = 4.31609e-06, No Iterations 1
smoothSolver:  Solving for Uy, Initial residual = 0.00229845, Final residual = 6.63542e-07, No Iterations 2
DICPCG:  Solving for p, Initial residual = 0.00484472, Final residual = 0.000228763, No Iterations 36
time step continuity errors : sum local = 2.81993e-09, global = 3.09357e-10, cumulative = 1.2435e-07
DICPCG:  Solving for p, Initial residual = 0.00160189, Final residual = 9.97451e-07, No Iterations 116
time step continuity errors : sum local = 1.2302e-11, global = 9.84706e-14, cumulative = 1.2435e-07
ExecutionTime = 9.12 s  ClockTime = 12 s

Time = 0.84

Courant Number mean: 0.0530075 max: 0.657357
smoothSolver:  Solving for Ux, Initial residual = 0.00036699, Final residual = 4.26256e-06, No Iterations 1
smoothSolver:  Solving for Uy, Initial residual = 0.00229317, Final residual = 6.58562e-07, No Iterations 2
DICPCG:  Solving for p, Initial residual = 0.00481024, Final residual = 0.000229592, No Iterations 36
time step continuity errors : sum local = 2.833e-09, global = 3.03148e-10, cumulative = 1.24653e-07
DICPCG:  Solving for p, Initial residual = 0.0015916, Final residual = 9.86589e-07, No Iterations 116
time step continuity errors : sum local = 1.21806e-11, global = 9.48468e-14, cumulative = 1.24654e-07
ExecutionTime = 9.21 s  ClockTime = 12 s

Time = 0.85

Courant Number mean: 0.053009 max: 0.656856
smoothSolver:  Solving for Ux, Initial residual = 0.000364786, Final residual = 4.2097e-06, No Iterations 1
smoothSolver:  Solving for Uy, Initial residual = 0.00228766, Final residual = 6.53641e-07, No Iterations 2
DICPCG:  Solving for p, Initial residual = 0.00477559, Final residual = 0.000226409, No Iterations 36
time step continuity errors : sum local = 2.79656e-09, global = 2.98685e-10, cumulative = 1.24952e-07
DICPCG:  Solving for p, Initial residual = 0.00157528, Final residual = 9.82041e-07, No Iterations 116
time step continuity errors : sum local = 1.21366e-11, global = 9.158e-14, cumulative = 1.24952e-07
ExecutionTime = 9.3 s  ClockTime = 12 s

Time = 0.86

Courant Number mean: 0.0530105 max: 0.656363
smoothSolver:  Solving for Ux, Initial residual = 0.000362605, Final residual = 4.1576e-06, No Iterations 1
smoothSolver:  Solving for Uy, Initial residual = 0.00228205, Final residual = 6.48766e-07, No Iterations 2
DICPCG:  Solving for p, Initial residual = 0.00474097, Final residual = 0.000227101, No Iterations 36
time step continuity errors : sum local = 2.80795e-09, global = 2.92353e-10, cumulative = 1.25245e-07
DICPCG:  Solving for p, Initial residual = 0.0015648, Final residual = 9.72282e-07, No Iterations 116
time step continuity errors : sum local = 1.20284e-11, global = 8.88339e-14, cumulative = 1.25245e-07
ExecutionTime = 9.4 s  ClockTime = 12 s

Time = 0.87

Courant Number mean: 0.053012 max: 0.655876
smoothSolver:  Solving for Ux, Initial residual = 0.000360443, Final residual = 4.10614e-06, No Iterations 1
smoothSolver:  Solving for Uy, Initial residual = 0.00227636, Final residual = 6.43877e-07, No Iterations 2
DICPCG:  Solving for p, Initial residual = 0.00470595, Final residual = 0.000223453, No Iterations 36
time step continuity errors : sum local = 2.76567e-09, global = 2.87697e-10, cumulative = 1.25532e-07
DICPCG:  Solving for p, Initial residual = 0.00154806, Final residual = 9.6519e-07, No Iterations 116
time step continuity errors : sum local = 1.19529e-11, global = 8.65185e-14, cumulative = 1.25533e-07
ExecutionTime = 9.5 s  ClockTime = 12 s

Time = 0.88

Courant Number mean: 0.0530136 max: 0.655396
smoothSolver:  Solving for Ux, Initial residual = 0.000358311, Final residual = 4.05566e-06, No Iterations 1
smoothSolver:  Solving for Uy, Initial residual = 0.00227035, Final residual = 6.39033e-07, No Iterations 2
DICPCG:  Solving for p, Initial residual = 0.00467025, Final residual = 0.00022411, No Iterations 36
time step continuity errors : sum local = 2.77662e-09, global = 2.81269e-10, cumulative = 1.25814e-07
DICPCG:  Solving for p, Initial residual = 0.00153804, Final residual = 9.58421e-07, No Iterations 116
time step continuity errors : sum local = 1.1881e-11, global = 8.4969e-14, cumulative = 1.25814e-07
ExecutionTime = 9.59 s  ClockTime = 12 s

Time = 0.89

Courant Number mean: 0.0530152 max: 0.654923
smoothSolver:  Solving for Ux, Initial residual = 0.000356205, Final residual = 4.0059e-06, No Iterations 1
smoothSolver:  Solving for Uy, Initial residual = 0.00226412, Final residual = 6.34193e-07, No Iterations 2
DICPCG:  Solving for p, Initial residual = 0.00463509, Final residual = 0.000220119, No Iterations 36
time step continuity errors : sum local = 2.72988e-09, global = 2.76428e-10, cumulative = 1.2609e-07
DICPCG:  Solving for p, Initial residual = 0.0015215, Final residual = 9.50881e-07, No Iterations 116
time step continuity errors : sum local = 1.17993e-11, global = 8.42588e-14, cumulative = 1.2609e-07
ExecutionTime = 9.69 s  ClockTime = 13 s

Time = 0.9

Courant Number mean: 0.0530169 max: 0.654456
smoothSolver:  Solving for Ux, Initial residual = 0.000354138, Final residual = 3.9567e-06, No Iterations 1
smoothSolver:  Solving for Uy, Initial residual = 0.00225779, Final residual = 6.29374e-07, No Iterations 2
DICPCG:  Solving for p, Initial residual = 0.00459978, Final residual = 0.000220789, No Iterations 36
time step continuity errors : sum local = 2.74106e-09, global = 2.69915e-10, cumulative = 1.2636e-07
DICPCG:  Solving for p, Initial residual = 0.0015115, Final residual = 9.46505e-07, No Iterations 116
time step continuity errors : sum local = 1.17579e-11, global = 8.42396e-14, cumulative = 1.2636e-07
ExecutionTime = 9.78 s  ClockTime = 13 s

Time = 0.91

Courant Number mean: 0.0530186 max: 0.653995
smoothSolver:  Solving for Ux, Initial residual = 0.000352097, Final residual = 3.908e-06, No Iterations 1
smoothSolver:  Solving for Uy, Initial residual = 0.0022512, Final residual = 6.24564e-07, No Iterations 2
DICPCG:  Solving for p, Initial residual = 0.0045653, Final residual = 0.000216487, No Iterations 36
time step continuity errors : sum local = 2.69076e-09, global = 2.64899e-10, cumulative = 1.26625e-07
DICPCG:  Solving for p, Initial residual = 0.00149453, Final residual = 9.40124e-07, No Iterations 116
time step continuity errors : sum local = 1.1693e-11, global = 8.49408e-14, cumulative = 1.26625e-07
ExecutionTime = 9.88 s  ClockTime = 13 s

Time = 0.92

Courant Number mean: 0.0530204 max: 0.653541
smoothSolver:  Solving for Ux, Initial residual = 0.000350111, Final residual = 3.85983e-06, No Iterations 1
smoothSolver:  Solving for Uy, Initial residual = 0.00224439, Final residual = 6.19773e-07, No Iterations 2
DICPCG:  Solving for p, Initial residual = 0.00453024, Final residual = 0.000217107, No Iterations 36
time step continuity errors : sum local = 2.7018e-09, global = 2.58309e-10, cumulative = 1.26884e-07
DICPCG:  Solving for p, Initial residual = 0.00148441, Final residual = 9.34634e-07, No Iterations 116
time step continuity errors : sum local = 1.1639e-11, global = 8.62252e-14, cumulative = 1.26884e-07
ExecutionTime = 9.98 s  ClockTime = 13 s

Time = 0.93

Courant Number mean: 0.0530222 max: 0.653092
smoothSolver:  Solving for Ux, Initial residual = 0.000348153, Final residual = 3.81211e-06, No Iterations 1
smoothSolver:  Solving for Uy, Initial residual = 0.00223741, Final residual = 6.15083e-07, No Iterations 2
DICPCG:  Solving for p, Initial residual = 0.00449577, Final residual = 0.000212666, No Iterations 36
time step continuity errors : sum local = 2.64984e-09, global = 2.5312e-10, cumulative = 1.27137e-07
DICPCG:  Solving for p, Initial residual = 0.00146718, Final residual = 9.35243e-07, No Iterations 116
time step continuity errors : sum local = 1.16614e-11, global = 8.74823e-14, cumulative = 1.27137e-07
ExecutionTime = 10.08 s  ClockTime = 13 s

Time = 0.94

Courant Number mean: 0.053024 max: 0.652648
smoothSolver:  Solving for Ux, Initial residual = 0.000346244, Final residual = 3.76512e-06, No Iterations 1
smoothSolver:  Solving for Uy, Initial residual = 0.00223029, Final residual = 6.10433e-07, No Iterations 2
DICPCG:  Solving for p, Initial residual = 0.00446067, Final residual = 0.000213099, No Iterations 36
time step continuity errors : sum local = 2.6586e-09, global = 2.46453e-10, cumulative = 1.27383e-07
DICPCG:  Solving for p, Initial residual = 0.00145645, Final residual = 9.21172e-07, No Iterations 116
time step continuity errors : sum local = 1.15008e-11, global = 8.89965e-14, cumulative = 1.27384e-07
ExecutionTime = 10.18 s  ClockTime = 13 s

Time = 0.95

Courant Number mean: 0.0530258 max: 0.652209
smoothSolver:  Solving for Ux, Initial residual = 0.000344362, Final residual = 3.71911e-06, No Iterations 1
smoothSolver:  Solving for Uy, Initial residual = 0.00222301, Final residual = 6.05806e-07, No Iterations 2
DICPCG:  Solving for p, Initial residual = 0.00442563, Final residual = 0.000208675, No Iterations 36
time step continuity errors : sum local = 2.60671e-09, global = 2.41092e-10, cumulative = 1.27625e-07
DICPCG:  Solving for p, Initial residual = 0.00143904, Final residual = 9.2045e-07, No Iterations 116
time step continuity errors : sum local = 1.15061e-11, global = 8.96691e-14, cumulative = 1.27625e-07
ExecutionTime = 10.26 s  ClockTime = 13 s

Time = 0.96

Courant Number mean: 0.0530277 max: 0.651775
smoothSolver:  Solving for Ux, Initial residual = 0.000342508, Final residual = 3.67362e-06, No Iterations 1
smoothSolver:  Solving for Uy, Initial residual = 0.00221562, Final residual = 6.01237e-07, No Iterations 2
DICPCG:  Solving for p, Initial residual = 0.00439151, Final residual = 0.000208956, No Iterations 36
time step continuity errors : sum local = 2.61347e-09, global = 2.34345e-10, cumulative = 1.27859e-07
DICPCG:  Solving for p, Initial residual = 0.00142821, Final residual = 9.07991e-07, No Iterations 116
time step continuity errors : sum local = 1.13643e-11, global = 9.02522e-14, cumulative = 1.27859e-07
ExecutionTime = 10.37 s  ClockTime = 13 s

Time = 0.97

Courant Number mean: 0.0530296 max: 0.651344
smoothSolver:  Solving for Ux, Initial residual = 0.000340694, Final residual = 3.62875e-06, No Iterations 1
smoothSolver:  Solving for Uy, Initial residual = 0.00220815, Final residual = 5.9672e-07, No Iterations 2
DICPCG:  Solving for p, Initial residual = 0.00435646, Final residual = 0.000204574, No Iterations 36
time step continuity errors : sum local = 2.56188e-09, global = 2.28811e-10, cumulative = 1.28088e-07
DICPCG:  Solving for p, Initial residual = 0.00141118, Final residual = 8.92423e-07, No Iterations 116
time step continuity errors : sum local = 1.11839e-11, global = 9.02827e-14, cumulative = 1.28088e-07
ExecutionTime = 10.47 s  ClockTime = 13 s

Time = 0.98

Courant Number mean: 0.0530315 max: 0.650917
smoothSolver:  Solving for Ux, Initial residual = 0.00033891, Final residual = 3.58467e-06, No Iterations 1
smoothSolver:  Solving for Uy, Initial residual = 0.00220064, Final residual = 5.92247e-07, No Iterations 2
DICPCG:  Solving for p, Initial residual = 0.00431952, Final residual = 0.000204663, No Iterations 36
time step continuity errors : sum local = 2.56631e-09, global = 2.21987e-10, cumulative = 1.2831e-07
DICPCG:  Solving for p, Initial residual = 0.00139986, Final residual = 9.97881e-07, No Iterations 115
time step continuity errors : sum local = 1.25218e-11, global = 1.02478e-13, cumulative = 1.2831e-07
ExecutionTime = 10.55 s  ClockTime = 14 s

Time = 0.99
[...]
time step continuity errors : sum local = 1.07019e-11, global = -1.84268e-12, cumulative = 1.54013e-07
ExecutionTime = 190.07 s  ClockTime = 250 s

Time = 24.74

Courant Number mean: 0.053641 max: 0.575042
smoothSolver:  Solving for Ux, Initial residual = 3.13174e-05, Final residual = 6.6321e-08, No Iterations 1
smoothSolver:  Solving for Uy, Initial residual = 8.20965e-05, Final residual = 1.49366e-07, No Iterations 1
DICPCG:  Solving for p, Initial residual = 8.5741e-05, Final residual = 3.96717e-06, No Iterations 23
time step continuity errors : sum local = 4.75825e-11, global = -4.349e-12, cumulative = 1.54009e-07
DICPCG:  Solving for p, Initial residual = 1.00703e-05, Final residual = 9.61612e-07, No Iterations 63
time step continuity errors : sum local = 1.15336e-11, global = -2.24837e-14, cumulative = 1.54009e-07
ExecutionTime = 190.14 s  ClockTime = 250 s

Time = 24.75

Courant Number mean: 0.053641 max: 0.575039
smoothSolver:  Solving for Ux, Initial residual = 3.12978e-05, Final residual = 6.62671e-08, No Iterations 1
smoothSolver:  Solving for Uy, Initial residual = 8.21063e-05, Final residual = 1.49408e-07, No Iterations 1
DICPCG:  Solving for p, Initial residual = 8.58663e-05, Final residual = 4.26026e-06, No Iterations 21
time step continuity errors : sum local = 5.10946e-11, global = 3.60803e-12, cumulative = 1.54012e-07
DICPCG:  Solving for p, Initial residual = 1.0402e-05, Final residual = 9.22888e-07, No Iterations 31
time step continuity errors : sum local = 1.10684e-11, global = -1.84367e-12, cumulative = 1.5401e-07
ExecutionTime = 190.2 s  ClockTime = 250 s

Time = 24.76

Courant Number mean: 0.053641 max: 0.575036
smoothSolver:  Solving for Ux, Initial residual = 3.12681e-05, Final residual = 6.6208e-08, No Iterations 1
smoothSolver:  Solving for Uy, Initial residual = 8.20973e-05, Final residual = 1.49337e-07, No Iterations 1
DICPCG:  Solving for p, Initial residual = 8.56463e-05, Final residual = 3.92967e-06, No Iterations 23
time step continuity errors : sum local = 4.71291e-11, global = -4.35115e-12, cumulative = 1.54006e-07
DICPCG:  Solving for p, Initial residual = 1.00421e-05, Final residual = 9.6155e-07, No Iterations 63
time step continuity errors : sum local = 1.15319e-11, global = -2.15428e-14, cumulative = 1.54006e-07
ExecutionTime = 190.26 s  ClockTime = 250 s

Time = 24.77

Courant Number mean: 0.0536409 max: 0.575033
smoothSolver:  Solving for Ux, Initial residual = 3.12488e-05, Final residual = 6.61541e-08, No Iterations 1
smoothSolver:  Solving for Uy, Initial residual = 8.21048e-05, Final residual = 1.49375e-07, No Iterations 1
DICPCG:  Solving for p, Initial residual = 8.57474e-05, Final residual = 4.27212e-06, No Iterations 21
time step continuity errors : sum local = 5.12328e-11, global = 3.6067e-12, cumulative = 1.5401e-07
DICPCG:  Solving for p, Initial residual = 1.04011e-05, Final residual = 8.84299e-07, No Iterations 31
time step continuity errors : sum local = 1.06048e-11, global = -1.83684e-12, cumulative = 1.54008e-07
ExecutionTime = 190.32 s  ClockTime = 250 s

Time = 24.78

Courant Number mean: 0.0536409 max: 0.57503
smoothSolver:  Solving for Ux, Initial residual = 3.12192e-05, Final residual = 6.60951e-08, No Iterations 1
smoothSolver:  Solving for Uy, Initial residual = 8.20992e-05, Final residual = 1.49301e-07, No Iterations 1
DICPCG:  Solving for p, Initial residual = 8.55177e-05, Final residual = 3.91225e-06, No Iterations 23
time step continuity errors : sum local = 4.69163e-11, global = -4.34601e-12, cumulative = 1.54004e-07
DICPCG:  Solving for p, Initial residual = 1.00224e-05, Final residual = 9.58602e-07, No Iterations 63
time step continuity errors : sum local = 1.14956e-11, global = -2.12278e-14, cumulative = 1.54003e-07
ExecutionTime = 190.39 s  ClockTime = 250 s

Time = 24.79

Courant Number mean: 0.0536409 max: 0.575027
smoothSolver:  Solving for Ux, Initial residual = 3.11999e-05, Final residual = 6.60414e-08, No Iterations 1
smoothSolver:  Solving for Uy, Initial residual = 8.211e-05, Final residual = 1.49339e-07, No Iterations 1
DICPCG:  Solving for p, Initial residual = 8.563e-05, Final residual = 4.26637e-06, No Iterations 21
time step continuity errors : sum local = 5.11598e-11, global = 3.5945e-12, cumulative = 1.54007e-07
DICPCG:  Solving for p, Initial residual = 1.03955e-05, Final residual = 9.00892e-07, No Iterations 31
time step continuity errors : sum local = 1.08029e-11, global = -1.83654e-12, cumulative = 1.54005e-07
ExecutionTime = 190.45 s  ClockTime = 250 s

Time = 24.8

Courant Number mean: 0.0536408 max: 0.575024
smoothSolver:  Solving for Ux, Initial residual = 3.11702e-05, Final residual = 6.59825e-08, No Iterations 1
smoothSolver:  Solving for Uy, Initial residual = 8.21042e-05, Final residual = 1.49265e-07, No Iterations 1
DICPCG:  Solving for p, Initial residual = 8.54212e-05, Final residual = 3.91181e-06, No Iterations 23
time step continuity errors : sum local = 4.69074e-11, global = -4.33924e-12, cumulative = 1.54001e-07
DICPCG:  Solving for p, Initial residual = 1.00163e-05, Final residual = 9.56528e-07, No Iterations 63
time step continuity errors : sum local = 1.14699e-11, global = -2.03251e-14, cumulative = 1.54001e-07
ExecutionTime = 190.52 s  ClockTime = 250 s

Time = 24.81

Courant Number mean: 0.0536408 max: 0.575021
smoothSolver:  Solving for Ux, Initial residual = 3.11509e-05, Final residual = 6.59289e-08, No Iterations 1
smoothSolver:  Solving for Uy, Initial residual = 8.21156e-05, Final residual = 1.49302e-07, No Iterations 1
DICPCG:  Solving for p, Initial residual = 8.55182e-05, Final residual = 4.27468e-06, No Iterations 21
time step continuity errors : sum local = 5.12554e-11, global = 3.59204e-12, cumulative = 1.54004e-07
DICPCG:  Solving for p, Initial residual = 1.03952e-05, Final residual = 9.98576e-07, No Iterations 30
time step continuity errors : sum local = 1.19733e-11, global = -1.73525e-12, cumulative = 1.54003e-07
ExecutionTime = 190.57 s  ClockTime = 251 s

Time = 24.82

Courant Number mean: 0.0536408 max: 0.575018
smoothSolver:  Solving for Ux, Initial residual = 3.11213e-05, Final residual = 6.58703e-08, No Iterations 1
smoothSolver:  Solving for Uy, Initial residual = 8.2107e-05, Final residual = 1.49221e-07, No Iterations 1
DICPCG:  Solving for p, Initial residual = 8.51677e-05, Final residual = 3.91283e-06, No Iterations 23
time step continuity errors : sum local = 4.6916e-11, global = -4.39023e-12, cumulative = 1.53998e-07
DICPCG:  Solving for p, Initial residual = 9.99101e-06, Final residual = 9.64714e-07, No Iterations 63
time step continuity errors : sum local = 1.15671e-11, global = -1.70128e-14, cumulative = 1.53998e-07
ExecutionTime = 190.64 s  ClockTime = 251 s

Time = 24.83

Courant Number mean: 0.0536407 max: 0.575015
smoothSolver:  Solving for Ux, Initial residual = 3.1102e-05, Final residual = 6.58165e-08, No Iterations 1
smoothSolver:  Solving for Uy, Initial residual = 8.21151e-05, Final residual = 1.49265e-07, No Iterations 1
DICPCG:  Solving for p, Initial residual = 8.54559e-05, Final residual = 4.25853e-06, No Iterations 21
time step continuity errors : sum local = 5.10576e-11, global = 3.59979e-12, cumulative = 1.54002e-07
DICPCG:  Solving for p, Initial residual = 1.03898e-05, Final residual = 9.95892e-07, No Iterations 30
time step continuity errors : sum local = 1.19402e-11, global = -1.72932e-12, cumulative = 1.54e-07
ExecutionTime = 190.7 s  ClockTime = 251 s

Time = 24.84

Courant Number mean: 0.0536407 max: 0.575012
smoothSolver:  Solving for Ux, Initial residual = 3.10724e-05, Final residual = 6.57581e-08, No Iterations 1
smoothSolver:  Solving for Uy, Initial residual = 8.21027e-05, Final residual = 1.49173e-07, No Iterations 1
DICPCG:  Solving for p, Initial residual = 8.50937e-05, Final residual = 3.91441e-06, No Iterations 23
time step continuity errors : sum local = 4.69312e-11, global = -4.39267e-12, cumulative = 1.53996e-07
DICPCG:  Solving for p, Initial residual = 1.00001e-05, Final residual = 9.59556e-07, No Iterations 63
time step continuity errors : sum local = 1.15043e-11, global = -1.62978e-14, cumulative = 1.53996e-07
ExecutionTime = 190.77 s  ClockTime = 251 s

Time = 24.85

Courant Number mean: 0.0536407 max: 0.575009
smoothSolver:  Solving for Ux, Initial residual = 3.10531e-05, Final residual = 6.57044e-08, No Iterations 1
smoothSolver:  Solving for Uy, Initial residual = 8.2109e-05, Final residual = 1.49222e-07, No Iterations 1
DICPCG:  Solving for p, Initial residual = 8.53406e-05, Final residual = 4.24783e-06, No Iterations 21
time step continuity errors : sum local = 5.09253e-11, global = 3.58824e-12, cumulative = 1.53999e-07
DICPCG:  Solving for p, Initial residual = 1.03745e-05, Final residual = 9.00176e-07, No Iterations 31
time step continuity errors : sum local = 1.07918e-11, global = -1.82066e-12, cumulative = 1.53998e-07
ExecutionTime = 190.82 s  ClockTime = 251 s

Time = 24.86

Courant Number mean: 0.0536406 max: 0.575006
smoothSolver:  Solving for Ux, Initial residual = 3.10235e-05, Final residual = 6.5646e-08, No Iterations 1
smoothSolver:  Solving for Uy, Initial residual = 8.20952e-05, Final residual = 1.49144e-07, No Iterations 1
DICPCG:  Solving for p, Initial residual = 8.51073e-05, Final residual = 3.89974e-06, No Iterations 23
time step continuity errors : sum local = 4.67514e-11, global = -4.34548e-12, cumulative = 1.53993e-07
DICPCG:  Solving for p, Initial residual = 9.98852e-06, Final residual = 9.47972e-07, No Iterations 63
time step continuity errors : sum local = 1.13645e-11, global = -1.8279e-14, cumulative = 1.53993e-07
ExecutionTime = 190.89 s  ClockTime = 251 s

Time = 24.87

Courant Number mean: 0.0536406 max: 0.575003
smoothSolver:  Solving for Ux, Initial residual = 3.10042e-05, Final residual = 6.55926e-08, No Iterations 1
smoothSolver:  Solving for Uy, Initial residual = 8.20971e-05, Final residual = 1.49183e-07, No Iterations 1
DICPCG:  Solving for p, Initial residual = 8.51868e-05, Final residual = 4.16007e-06, No Iterations 22
time step continuity errors : sum local = 4.98692e-11, global = 2.63534e-12, cumulative = 1.53996e-07
DICPCG:  Solving for p, Initial residual = 1.01707e-05, Final residual = 8.75647e-07, No Iterations 31
time step continuity errors : sum local = 1.04968e-11, global = -1.79367e-12, cumulative = 1.53994e-07
ExecutionTime = 190.95 s  ClockTime = 251 s

Time = 24.88

Courant Number mean: 0.0536406 max: 0.575
smoothSolver:  Solving for Ux, Initial residual = 3.09746e-05, Final residual = 6.55341e-08, No Iterations 1
smoothSolver:  Solving for Uy, Initial residual = 8.20794e-05, Final residual = 1.49109e-07, No Iterations 1
DICPCG:  Solving for p, Initial residual = 8.50185e-05, Final residual = 3.88003e-06, No Iterations 23
time step continuity errors : sum local = 4.65114e-11, global = -4.3627e-12, cumulative = 1.5399e-07
DICPCG:  Solving for p, Initial residual = 9.98213e-06, Final residual = 9.35567e-07, No Iterations 63
time step continuity errors : sum local = 1.12149e-11, global = -2.10931e-14, cumulative = 1.5399e-07
ExecutionTime = 191.02 s  ClockTime = 251 s

Time = 24.89

Courant Number mean: 0.0536405 max: 0.574997
smoothSolver:  Solving for Ux, Initial residual = 3.09554e-05, Final residual = 6.54809e-08, No Iterations 1
smoothSolver:  Solving for Uy, Initial residual = 8.20796e-05, Final residual = 1.49152e-07, No Iterations 1
DICPCG:  Solving for p, Initial residual = 8.51104e-05, Final residual = 4.22479e-06, No Iterations 21
time step continuity errors : sum local = 5.06409e-11, global = 3.54986e-12, cumulative = 1.53993e-07
DICPCG:  Solving for p, Initial residual = 1.03491e-05, Final residual = 8.96769e-07, No Iterations 31
time step continuity errors : sum local = 1.07492e-11, global = -1.82449e-12, cumulative = 1.53991e-07
ExecutionTime = 191.08 s  ClockTime = 251 s

Time = 24.9

Courant Number mean: 0.0536405 max: 0.574994
smoothSolver:  Solving for Ux, Initial residual = 3.09259e-05, Final residual = 6.54227e-08, No Iterations 1
smoothSolver:  Solving for Uy, Initial residual = 8.20602e-05, Final residual = 1.49077e-07, No Iterations 1
DICPCG:  Solving for p, Initial residual = 8.48837e-05, Final residual = 3.89443e-06, No Iterations 23
time step continuity errors : sum local = 4.66803e-11, global = -4.36151e-12, cumulative = 1.53987e-07
DICPCG:  Solving for p, Initial residual = 9.95956e-06, Final residual = 9.4027e-07, No Iterations 63
time step continuity errors : sum local = 1.12704e-11, global = -1.76405e-14, cumulative = 1.53987e-07
ExecutionTime = 191.14 s  ClockTime = 251 s

Time = 24.91

Courant Number mean: 0.0536405 max: 0.574991
smoothSolver:  Solving for Ux, Initial residual = 3.09069e-05, Final residual = 6.53695e-08, No Iterations 1
smoothSolver:  Solving for Uy, Initial residual = 8.20575e-05, Final residual = 1.49112e-07, No Iterations 1
DICPCG:  Solving for p, Initial residual = 8.49966e-05, Final residual = 4.22783e-06, No Iterations 21
time step continuity errors : sum local = 5.06733e-11, global = 3.5645e-12, cumulative = 1.53991e-07
DICPCG:  Solving for p, Initial residual = 1.03449e-05, Final residual = 9.86912e-07, No Iterations 30
time step continuity errors : sum local = 1.18287e-11, global = -1.72189e-12, cumulative = 1.53989e-07
ExecutionTime = 191.2 s  ClockTime = 251 s

Time = 24.92

Courant Number mean: 0.0536404 max: 0.574988
smoothSolver:  Solving for Ux, Initial residual = 3.08778e-05, Final residual = 6.53116e-08, No Iterations 1
smoothSolver:  Solving for Uy, Initial residual = 8.20387e-05, Final residual = 1.49027e-07, No Iterations 1
DICPCG:  Solving for p, Initial residual = 8.46167e-05, Final residual = 3.87766e-06, No Iterations 23
time step continuity errors : sum local = 4.64755e-11, global = -4.38891e-12, cumulative = 1.53984e-07
DICPCG:  Solving for p, Initial residual = 9.92889e-06, Final residual = 9.44811e-07, No Iterations 63
time step continuity errors : sum local = 1.13239e-11, global = -1.42837e-14, cumulative = 1.53984e-07
ExecutionTime = 191.27 s  ClockTime = 251 s

Time = 24.93

Courant Number mean: 0.0536404 max: 0.574985
smoothSolver:  Solving for Ux, Initial residual = 3.08591e-05, Final residual = 6.52587e-08, No Iterations 1
smoothSolver:  Solving for Uy, Initial residual = 8.20362e-05, Final residual = 1.49068e-07, No Iterations 1
DICPCG:  Solving for p, Initial residual = 8.49062e-05, Final residual = 4.236e-06, No Iterations 21
time step continuity errors : sum local = 5.07671e-11, global = 3.55957e-12, cumulative = 1.53988e-07
DICPCG:  Solving for p, Initial residual = 1.03554e-05, Final residual = 9.95153e-07, No Iterations 30
time step continuity errors : sum local = 1.19265e-11, global = -1.72445e-12, cumulative = 1.53986e-07
ExecutionTime = 191.33 s  ClockTime = 251 s

Time = 24.94

Courant Number mean: 0.0536404 max: 0.574982
smoothSolver:  Solving for Ux, Initial residual = 3.08301e-05, Final residual = 6.52011e-08, No Iterations 1
smoothSolver:  Solving for Uy, Initial residual = 8.20189e-05, Final residual = 1.48975e-07, No Iterations 1
DICPCG:  Solving for p, Initial residual = 8.45535e-05, Final residual = 3.90249e-06, No Iterations 23
time step continuity errors : sum local = 4.67693e-11, global = -4.39621e-12, cumulative = 1.53982e-07
DICPCG:  Solving for p, Initial residual = 9.96023e-06, Final residual = 9.45439e-07, No Iterations 63
time step continuity errors : sum local = 1.13305e-11, global = -1.4172e-14, cumulative = 1.53982e-07
ExecutionTime = 191.39 s  ClockTime = 251 s

Time = 24.95

Courant Number mean: 0.0536403 max: 0.574979
smoothSolver:  Solving for Ux, Initial residual = 3.08113e-05, Final residual = 6.51483e-08, No Iterations 1
smoothSolver:  Solving for Uy, Initial residual = 8.20206e-05, Final residual = 1.4901e-07, No Iterations 1
DICPCG:  Solving for p, Initial residual = 8.48163e-05, Final residual = 4.20881e-06, No Iterations 21
time step continuity errors : sum local = 5.04371e-11, global = 3.55715e-12, cumulative = 1.53985e-07
DICPCG:  Solving for p, Initial residual = 1.03346e-05, Final residual = 9.86395e-07, No Iterations 30
time step continuity errors : sum local = 1.18206e-11, global = -1.71486e-12, cumulative = 1.53984e-07
ExecutionTime = 191.45 s  ClockTime = 252 s

Time = 24.96

Courant Number mean: 0.0536403 max: 0.574976
smoothSolver:  Solving for Ux, Initial residual = 3.07823e-05, Final residual = 6.50908e-08, No Iterations 1
smoothSolver:  Solving for Uy, Initial residual = 8.20011e-05, Final residual = 1.48911e-07, No Iterations 1
DICPCG:  Solving for p, Initial residual = 8.4456e-05, Final residual = 3.8881e-06, No Iterations 23
time step continuity errors : sum local = 4.6593e-11, global = -4.38462e-12, cumulative = 1.53979e-07
DICPCG:  Solving for p, Initial residual = 9.93941e-06, Final residual = 9.40079e-07, No Iterations 63
time step continuity errors : sum local = 1.12653e-11, global = -1.32383e-14, cumulative = 1.53979e-07
ExecutionTime = 191.52 s  ClockTime = 252 s

Time = 24.97

Courant Number mean: 0.0536403 max: 0.574973
smoothSolver:  Solving for Ux, Initial residual = 3.07635e-05, Final residual = 6.5038e-08, No Iterations 1
smoothSolver:  Solving for Uy, Initial residual = 8.20011e-05, Final residual = 1.48942e-07, No Iterations 1
DICPCG:  Solving for p, Initial residual = 8.46987e-05, Final residual = 4.2124e-06, No Iterations 21
time step continuity errors : sum local = 5.0476e-11, global = 3.54655e-12, cumulative = 1.53983e-07
DICPCG:  Solving for p, Initial residual = 1.03263e-05, Final residual = 9.89277e-07, No Iterations 30
time step continuity errors : sum local = 1.18542e-11, global = -1.71621e-12, cumulative = 1.53981e-07
ExecutionTime = 191.57 s  ClockTime = 252 s

Time = 24.98

Courant Number mean: 0.0536402 max: 0.57497
smoothSolver:  Solving for Ux, Initial residual = 3.07344e-05, Final residual = 6.49807e-08, No Iterations 1
smoothSolver:  Solving for Uy, Initial residual = 8.19793e-05, Final residual = 1.48839e-07, No Iterations 1
DICPCG:  Solving for p, Initial residual = 8.43484e-05, Final residual = 3.8866e-06, No Iterations 23
time step continuity errors : sum local = 4.65711e-11, global = -4.38906e-12, cumulative = 1.53977e-07
DICPCG:  Solving for p, Initial residual = 9.93217e-06, Final residual = 9.43106e-07, No Iterations 63
time step continuity errors : sum local = 1.13007e-11, global = -1.31563e-14, cumulative = 1.53977e-07
ExecutionTime = 191.64 s  ClockTime = 252 s

Time = 24.99

Courant Number mean: 0.0536402 max: 0.574968
smoothSolver:  Solving for Ux, Initial residual = 3.07156e-05, Final residual = 6.49281e-08, No Iterations 1
smoothSolver:  Solving for Uy, Initial residual = 8.19776e-05, Final residual = 1.48869e-07, No Iterations 1
DICPCG:  Solving for p, Initial residual = 8.45954e-05, Final residual = 4.20748e-06, No Iterations 21
time step continuity errors : sum local = 5.04128e-11, global = 3.54237e-12, cumulative = 1.5398e-07
DICPCG:  Solving for p, Initial residual = 1.03151e-05, Final residual = 9.84346e-07, No Iterations 30
time step continuity errors : sum local = 1.17941e-11, global = -1.71381e-12, cumulative = 1.53979e-07
ExecutionTime = 191.7 s  ClockTime = 252 s

Time = 25

Courant Number mean: 0.0536402 max: 0.574965
smoothSolver:  Solving for Ux, Initial residual = 3.06866e-05, Final residual = 6.48709e-08, No Iterations 1
smoothSolver:  Solving for Uy, Initial residual = 8.19562e-05, Final residual = 1.48766e-07, No Iterations 1
DICPCG:  Solving for p, Initial residual = 8.42288e-05, Final residual = 3.88193e-06, No Iterations 23
time step continuity errors : sum local = 4.65114e-11, global = -4.38499e-12, cumulative = 1.53974e-07
DICPCG:  Solving for p, Initial residual = 9.92663e-06, Final residual = 9.41263e-07, No Iterations 63
time step continuity errors : sum local = 1.12777e-11, global = -1.28934e-14, cumulative = 1.53974e-07
ExecutionTime = 191.97 s  ClockTime = 252 s

End

