/work/05129/mars2020/stampede2/cfd/my_openfoam_2/openFoam2
Mon Apr  1 21:38:16 CDT 2019
/*---------------------------------------------------------------------------*\
  =========                 |
  \\      /  F ield         | OpenFOAM: The Open Source CFD Toolbox
   \\    /   O peration     | Website:  https://openfoam.org
    \\  /    A nd           | Version:  6.0
     \\/     M anipulation  |
\*---------------------------------------------------------------------------*/
Build  : 6.0
Exec   : blockMesh
Date   : Apr 01 2019
Time   : 21:38:21
Host   : "c403-072.stampede2.tacc.utexas.edu"
PID    : 183036
I/O    : uncollated
Case   : /work/05129/mars2020/stampede2/cfd/my_openfoam_2/openFoam2
nProcs : 1
sigFpe : Enabling floating point exception trapping (FOAM_SIGFPE).
fileModificationChecking : Monitoring run-time modified files using timeStampMaster (fileModificationSkew 10)
allowSystemOperations : Allowing user-supplied system call operations

// * * * * * * * * * * * * * * * * * * * * * * * * * * * * * * * * * * * * * //
Create time

Deleting polyMesh directory
    "/work/05129/mars2020/stampede2/cfd/my_openfoam_2/openFoam2/constant/polyMesh"
Creating block mesh from
    "/work/05129/mars2020/stampede2/cfd/my_openfoam_2/openFoam2/system/blockMeshDict"
Creating block edges
No non-planar block faces defined
Creating topology blocks
Creating topology patches

Creating block mesh topology
--> FOAM Warning : 
    From function Foam::polyMesh::polyMesh(const Foam::IOobject &, const Foam::Xfer<Foam::Field<Foam::Vector<double>>> &, const Foam::List<Foam::cellShape> &, const Foam::List<Foam::List<Foam::face>> &, const Foam::List<Foam::word> &, const Foam::PtrList<Foam::dictionary> &, const Foam::word &, const Foam::word &, bool)
    in file meshes/polyMesh/polyMeshFromShapeMesh.C at line 871
    Found 40 undefined faces in mesh; adding to default patch.

Check topology

	Basic statistics
		Number of internal faces : 28
		Number of boundary faces : 64
		Number of defined boundary faces : 64
		Number of undefined boundary faces : 0
	Checking patch -> block consistency

Creating block offsets
Creating merge list .

Creating polyMesh from blockMesh
Creating points with scale 1
    Block 0 cell size :
        i : 0.025 .. 0.025
        j : 0.0196337 .. 0.0196337
        k : 0.1 .. 0.1

    Block 1 cell size :
        i : 0.025 .. 0.025
        j : 0.0196337 .. 0.0196337
        k : 0.1 .. 0.1

    Block 2 cell size :
        i : 0.025 .. 0.025
        j : 0.0196337 .. 0.0196337
        k : 0.1 .. 0.1

    Block 3 cell size :
        i : 0.025 .. 0.025
        j : 0.0196337 .. 0.0196337
        k : 0.1 .. 0.1

    Block 4 cell size :
        i : 0.025 .. 0.025
        j : 0.0196337 .. 0.0196337
        k : 0.1 .. 0.1

    Block 5 cell size :
        i : 0.025 .. 0.025
        j : 0.0196337 .. 0.0196337
        k : 0.1 .. 0.1

    Block 6 cell size :
        i : 0.025 .. 0.025
        j : 0.0196337 .. 0.0196337
        k : 0.1 .. 0.1

    Block 7 cell size :
        i : 0.025 .. 0.025
        j : 0.0196337 .. 0.0196337
        k : 0.1 .. 0.1

    Block 8 cell size :
        i : 0.55 .. 0.55
        j : 0.0392674 .. 0.0392674
        k : 0.1 .. 0.1

    Block 9 cell size :
        i : 0.564645 .. 0.564645
        j : 0.364645 .. 0.364645
        k : 0.1 .. 0.1

    Block 10 cell size :
        i : 0.0392674 .. 0.0392674
        j : 0.35 .. 0.35
        k : 0.1 .. 0.1

    Block 11 cell size :
        i : 0.0392674 .. 0.0392674
        j : 0.364645 .. 0.364645
        k : 0.1 .. 0.1

    Block 12 cell size :
        i : 0.164645 .. 0.164645
        j : 0.364645 .. 0.364645
        k : 0.1 .. 0.1

    Block 13 cell size :
        i : 0.15 .. 0.15
        j : 0.0353554 .. 0.0353554
        k : 0.1 .. 0.1

    Block 14 cell size :
        i : 0.164645 .. 0.164645
        j : 0.0353554 .. 0.0353554
        k : 0.1 .. 0.1

    Block 15 cell size :
        i : 0.164645 .. 0.164645
        j : 0.364645 .. 0.364645
        k : 0.1 .. 0.1

    Block 16 cell size :
        i : 0.0353554 .. 0.0353554
        j : 0.364645 .. 0.364645
        k : 0.1 .. 0.1

    Block 17 cell size :
        i : 0.0353554 .. 0.0353554
        j : 0.35 .. 0.35
        k : 0.1 .. 0.1

    Block 18 cell size :
        i : 0.564645 .. 0.564645
        j : 0.364645 .. 0.364645
        k : 0.1 .. 0.1

    Block 19 cell size :
        i : 0.564645 .. 0.564645
        j : 0.0392674 .. 0.0392674
        k : 0.1 .. 0.1

Creating cells
Creating patches

Writing polyMesh
----------------
Mesh Information
----------------
  boundingBox: (-4 -8 -0.05) (12 8 0.05)
  nPoints: 16480
  nCells: 8000
  nFaces: 32240
  nInternalFaces: 15760
----------------
Patches
----------------
  patch 0 (start: 15760 size: 80) name: inlet
  patch 1 (start: 15840 size: 80) name: outlet
  patch 2 (start: 15920 size: 160) name: cylinder
  patch 3 (start: 16080 size: 80) name: top
  patch 4 (start: 16160 size: 80) name: bottom
  patch 5 (start: 16240 size: 16000) name: defaultFaces

End

/*---------------------------------------------------------------------------*\
  =========                 |
  \\      /  F ield         | OpenFOAM: The Open Source CFD Toolbox
   \\    /   O peration     | Website:  https://openfoam.org
    \\  /    A nd           | Version:  6.0
     \\/     M anipulation  |
\*---------------------------------------------------------------------------*/
Build  : 6.0
Exec   : checkMesh
Date   : Apr 01 2019
Time   : 21:38:23
Host   : "c403-072.stampede2.tacc.utexas.edu"
PID    : 183046
I/O    : uncollated
Case   : /work/05129/mars2020/stampede2/cfd/my_openfoam_2/openFoam2
nProcs : 1
sigFpe : Enabling floating point exception trapping (FOAM_SIGFPE).
fileModificationChecking : Monitoring run-time modified files using timeStampMaster (fileModificationSkew 10)
allowSystemOperations : Allowing user-supplied system call operations

// * * * * * * * * * * * * * * * * * * * * * * * * * * * * * * * * * * * * * //
Create time

Create polyMesh for time = 0

Time = 0

Mesh stats
    points:           16480
    internal points:  0
    faces:            32240
    internal faces:   15760
    cells:            8000
    faces per cell:   6
    boundary patches: 6
    point zones:      0
    face zones:       0
    cell zones:       0

Overall number of cells of each type:
    hexahedra:     8000
    prisms:        0
    wedges:        0
    pyramids:      0
    tet wedges:    0
    tetrahedra:    0
    polyhedra:     0

Checking topology...
    Boundary definition OK.
    Cell to face addressing OK.
    Point usage OK.
    Upper triangular ordering OK.
    Face vertices OK.
    Number of regions: 1 (OK).

Checking patch topology for multiply connected surfaces...
    Patch               Faces    Points   Surface topology                  
    inlet               80       162      ok (non-closed singly connected)  
    outlet              80       162      ok (non-closed singly connected)  
    cylinder            160      320      ok (non-closed singly connected)  
    top                 80       162      ok (non-closed singly connected)  
    bottom              80       162      ok (non-closed singly connected)  
    defaultFaces        16000    16480    ok (non-closed singly connected)  

Checking geometry...
    Overall domain bounding box (-4 -8 -0.05) (12 8 0.05)
    Mesh has 2 geometric (non-empty/wedge) directions (1 1 0)
    Mesh has 2 solution (non-empty) directions (1 1 0)
    All edges aligned with or perpendicular to non-empty directions.
    Boundary openness (-2.01266e-20 -1.87848e-19 -1.4363e-16) OK.
    Max cell openness = 2.03105e-16 OK.
    Max aspect ratio = 20.6047 OK.
    Minimum face area = 0.000503016. Maximum face area = 0.205895.  Face area magnitudes OK.
    Min volume = 5.03016e-05. Max volume = 0.0205895.  Total volume = 25.5215.  Cell volumes OK.
    Mesh non-orthogonality Max: 42.1963 average: 9.79724
    Non-orthogonality check OK.
    Face pyramids OK.
    Max skewness = 0.5043 OK.
    Coupled point location match (average 0) OK.

Mesh OK.

End

/*---------------------------------------------------------------------------*\
  =========                 |
  \\      /  F ield         | OpenFOAM: The Open Source CFD Toolbox
   \\    /   O peration     | Website:  https://openfoam.org
    \\  /    A nd           | Version:  6.0
     \\/     M anipulation  |
\*---------------------------------------------------------------------------*/
Build  : 6.0
Exec   : icoFoam
Date   : Apr 01 2019
Time   : 21:38:26
Host   : "c403-072.stampede2.tacc.utexas.edu"
PID    : 183214
I/O    : uncollated
Case   : /work/05129/mars2020/stampede2/cfd/my_openfoam_2/openFoam2
nProcs : 1
sigFpe : Enabling floating point exception trapping (FOAM_SIGFPE).
fileModificationChecking : Monitoring run-time modified files using timeStampMaster (fileModificationSkew 10)
allowSystemOperations : Allowing user-supplied system call operations

// * * * * * * * * * * * * * * * * * * * * * * * * * * * * * * * * * * * * * //
Create time

Create mesh for time = 0

Reading transportProperties

Reading field p

Reading field U

Reading/calculating face flux field phi


Starting time loop

Reading set description:
    simple_line

Time = 0.1

Courant Number mean: 0.521587 max: 6.20055
smoothSolver:  Solving for Ux, Initial residual = 1, Final residual = 3.08734e-06, No Iterations 13
smoothSolver:  Solving for Uy, Initial residual = 0, Final residual = 0, No Iterations 0
DICPCG:  Solving for p, Initial residual = 1, Final residual = 0.0475383, No Iterations 73
time step continuity errors : sum local = 4.18281e-05, global = 3.46574e-07, cumulative = 3.46574e-07
DICPCG:  Solving for p, Initial residual = 0.298613, Final residual = 9.78563e-07, No Iterations 137
time step continuity errors : sum local = 6.8928e-09, global = -1.11034e-10, cumulative = 3.46463e-07
ExecutionTime = 1.17 s  ClockTime = 1 s

Time = 0.2

Courant Number mean: 0.530274 max: 6.95239
smoothSolver:  Solving for Ux, Initial residual = 0.109926, Final residual = 2.52294e+192, No Iterations 1000
smoothSolver:  Solving for Uy, Initial residual = 0.329524, Final residual = 6.06855e+192, No Iterations 1000
